<?xml version="1.0" encoding="UTF-8"?>

<!-- generated on Mon Aug 17 15:54:26 2015 by SUMO netconvert Version 0.23.0
<?xml version="1.0" encoding="UTF-8"?>

<configuration xmlns:xsi="http://www.w3.org/2001/XMLSchema-instance" xsi:noNamespaceSchemaLocation="http://sumo.dlr.de/xsd/netconvertConfiguration.xsd">

    <input>
        <osm-files value="map.osm"/>
    </input>

    <output>
        <output-file value="map.net.xml"/>
    </output>

    <projection>
        <proj.utm value="true"/>
    </projection>

    <tls_building>
        <tls.discard-simple value="true"/>
        <tls.join value="true"/>
    </tls_building>

    <ramp_guessing>
        <ramps.guess value="true"/>
    </ramp_guessing>

    <edge_removal>
        <remove-edges.by-vclass value="hov,taxi,bus,delivery,truck,tram,rail_urban,rail,rail_electric,motorcycle,bicycle,pedestrian"/>
        <remove-edges.isolated value="true"/>
    </edge_removal>

    <processing>
        <geometry.remove value="true"/>
        <roundabouts.guess value="true"/>
        <junctions.join value="true"/>
        <tls.guess-signals value="true"/>
    </processing>

    <report>
        <verbose value="true"/>
    </report>

</configuration>
-->

<net version="0.13" xmlns:xsi="http://www.w3.org/2001/XMLSchema-instance" xsi:noNamespaceSchemaLocation="http://sumo.dlr.de/xsd/net_file.xsd">

    <location netOffset="-470497.87,-5549864.73" convBoundary="0.00,0.00,6231.88,2104.22" origBoundary="8.571545,50.100385,8.697430,50.132585" projParameter="+proj=utm +zone=32 +ellps=WGS84 +datum=WGS84 +units=m +no_defs"/>

    <edge id=":1004185228_0" function="internal">
        <lane id=":1004185228_0_0" index="0" speed="13.89" length="4.82" shape="3564.24,786.38 3565.16,785.21 3566.01,784.86 3566.80,785.33 3567.54,786.62"/>
    </edge>
    <edge id=":1005499542_0" function="internal">
        <lane id=":1005499542_0_0" index="0" speed="11.11" length="5.00" shape="3060.00,902.09 3058.63,902.20 3057.63,902.71 3056.98,903.64 3056.70,904.98"/>
    </edge>
    <edge id=":1005499542_1" function="internal">
        <lane id=":1005499542_1_0" index="0" speed="8.33" length="9.49" shape="3060.00,902.09 3050.53,901.43"/>
    </edge>
    <edge id=":1005499542_2" function="internal">
        <lane id=":1005499542_2_0" index="0" speed="8.33" length="4.82" shape="3060.00,902.09 3058.82,901.19 3058.46,900.34 3058.93,899.54 3060.22,898.80"/>
    </edge>
    <edge id=":1005499542_3" function="internal">
        <lane id=":1005499542_3_0" index="0" speed="8.33" length="9.47" shape="3050.77,898.14 3060.22,898.80"/>
    </edge>
    <edge id=":1005499542_4" function="internal">
        <lane id=":1005499542_4_0" index="0" speed="11.11" length="10.31" shape="3050.77,898.14 3053.52,898.74 3055.42,900.08 3056.49,902.16 3056.70,904.98"/>
    </edge>
    <edge id=":1005499542_5" function="internal">
        <lane id=":1005499542_5_0" index="0" speed="8.33" length="4.82" shape="3050.77,898.14 3051.94,899.05 3052.30,899.91 3051.82,900.70 3050.53,901.43"/>
    </edge>
    <edge id=":1005499542_6" function="internal">
        <lane id=":1005499542_6_0" index="0" speed="11.11" length="5.02" shape="3053.41,904.77 3053.31,903.40 3052.79,902.38 3051.87,901.73 3050.53,901.43"/>
    </edge>
    <edge id=":1005499542_7" function="internal">
        <lane id=":1005499542_7_0" index="0" speed="11.11" length="10.34" shape="3053.41,904.77 3053.99,902.00 3055.32,900.08 3057.39,899.01 3060.22,898.80"/>
    </edge>
    <edge id=":1005499542_8" function="internal">
        <lane id=":1005499542_8_0" index="0" speed="13.89" length="4.82" shape="3053.41,904.77 3054.31,903.59 3055.16,903.23 3055.96,903.70 3056.70,904.98"/>
    </edge>
    <edge id=":1005499777_0" function="internal">
        <lane id=":1005499777_0_0" index="0" speed="11.11" length="5.03" shape="3391.44,923.74 3390.08,923.87 3389.08,924.41 3388.45,925.36 3388.17,926.73"/>
    </edge>
    <edge id=":1005499777_1" function="internal">
        <lane id=":1005499777_1_0" index="0" speed="8.33" length="9.48" shape="3391.44,923.74 3381.96,923.25"/>
    </edge>
    <edge id=":1005499777_2" function="internal">
        <lane id=":1005499777_2_0" index="0" speed="8.33" length="4.82" shape="3391.44,923.74 3390.24,922.85 3389.87,922.01 3390.32,921.21 3391.59,920.44"/>
    </edge>
    <edge id=":1005499777_3" function="internal">
        <lane id=":1005499777_3_0" index="0" speed="8.33" length="9.45" shape="3382.15,919.95 3391.59,920.44"/>
    </edge>
    <edge id=":1005499777_4" function="internal">
        <lane id=":1005499777_4_0" index="0" speed="11.11" length="10.35" shape="3382.15,919.95 3384.93,920.51 3386.86,921.83 3387.94,923.90 3388.17,926.73"/>
    </edge>
    <edge id=":1005499777_5" function="internal">
        <lane id=":1005499777_5_0" index="0" speed="8.33" length="4.82" shape="3382.15,919.95 3383.34,920.85 3383.70,921.69 3383.25,922.49 3381.96,923.25"/>
    </edge>
    <edge id=":1005499777_6" function="internal">
        <lane id=":1005499777_6_0" index="0" speed="11.11" length="5.01" shape="3384.88,926.52 3384.77,925.16 3384.24,924.15 3383.31,923.52 3381.96,923.25"/>
    </edge>
    <edge id=":1005499777_7" function="internal">
        <lane id=":1005499777_7_0" index="0" speed="11.11" length="10.30" shape="3384.88,926.52 3385.44,923.75 3386.75,921.81 3388.80,920.71 3391.59,920.44"/>
    </edge>
    <edge id=":1005499777_8" function="internal">
        <lane id=":1005499777_8_0" index="0" speed="13.89" length="4.82" shape="3384.88,926.52 3385.78,925.34 3386.63,924.98 3387.42,925.44 3388.17,926.73"/>
    </edge>
    <edge id=":1005499819_0" function="internal">
        <lane id=":1005499819_0_0" index="0" speed="8.33" length="4.82" shape="2645.15,811.44 2646.16,810.34 2647.04,810.06 2647.79,810.60 2648.41,811.95"/>
    </edge>
    <edge id=":1005499869_0" function="internal">
        <lane id=":1005499869_0_0" index="0" speed="13.89" length="5.06" shape="3565.38,867.08 3563.98,867.18 3562.98,867.71 3562.37,868.67 3562.15,870.05"/>
    </edge>
    <edge id=":1005499869_1" function="internal">
        <lane id=":1005499869_1_0" index="0" speed="13.89" length="9.70" shape="3565.38,867.08 3555.70,866.46"/>
    </edge>
    <edge id=":1005499869_2" function="internal">
        <lane id=":1005499869_2_0" index="0" speed="13.89" length="5.39" shape="3565.38,867.08 3562.54,866.49 3560.56,865.15 3560.51,865.06"/>
    </edge>
    <edge id=":1005499869_3" function="internal">
        <lane id=":1005499869_3_0" index="0" speed="13.89" length="2.41" shape="3565.38,867.08 3564.20,866.17 3563.84,865.32"/>
    </edge>
    <edge id=":1005499869_16" function="internal">
        <lane id=":1005499869_16_0" index="0" speed="13.89" length="5.10" shape="3560.51,865.06 3559.43,863.07 3559.17,860.24"/>
    </edge>
    <edge id=":1005499869_17" function="internal">
        <lane id=":1005499869_17_0" index="0" speed="13.89" length="2.41" shape="3563.84,865.32 3564.31,864.52 3565.60,863.78"/>
    </edge>
    <edge id=":1005499869_4" function="internal">
        <lane id=":1005499869_4_0" index="0" speed="13.89" length="5.23" shape="3562.47,860.41 3562.60,861.81 3563.17,862.83 3564.17,863.49 3565.60,863.78"/>
    </edge>
    <edge id=":1005499869_5" function="internal">
        <lane id=":1005499869_5_0" index="0" speed="13.89" length="9.64" shape="3562.47,860.41 3562.15,870.05"/>
    </edge>
    <edge id=":1005499869_6" function="internal">
        <lane id=":1005499869_6_0" index="0" speed="13.89" length="10.37" shape="3562.47,860.41 3561.92,863.21 3560.61,865.15 3558.54,866.23 3555.70,866.46"/>
    </edge>
    <edge id=":1005499869_7" function="internal">
        <lane id=":1005499869_7_0" index="0" speed="13.89" length="4.82" shape="3562.47,860.41 3561.58,861.61 3560.73,861.98 3559.93,861.52 3559.17,860.24"/>
    </edge>
    <edge id=":1005499869_8" function="internal">
        <lane id=":1005499869_8_0" index="0" speed="13.89" length="5.01" shape="3555.90,863.17 3557.27,863.05 3558.27,862.53 3558.91,861.59 3559.17,860.24"/>
    </edge>
    <edge id=":1005499869_9" function="internal">
        <lane id=":1005499869_9_0" index="0" speed="13.89" length="9.71" shape="3555.90,863.17 3565.60,863.78"/>
    </edge>
    <edge id=":1005499869_10" function="internal">
        <lane id=":1005499869_10_0" index="0" speed="13.89" length="5.31" shape="3555.90,863.17 3558.67,863.74 3560.64,865.08 3560.69,865.17"/>
    </edge>
    <edge id=":1005499869_11" function="internal">
        <lane id=":1005499869_11_0" index="0" speed="13.89" length="2.41" shape="3555.90,863.17 3557.09,864.07 3557.45,864.91"/>
    </edge>
    <edge id=":1005499869_18" function="internal">
        <lane id=":1005499869_18_0" index="0" speed="13.89" length="5.19" shape="3560.69,865.17 3561.80,867.18 3562.15,870.05"/>
    </edge>
    <edge id=":1005499869_19" function="internal">
        <lane id=":1005499869_19_0" index="0" speed="13.89" length="2.41" shape="3557.45,864.91 3556.98,865.71 3555.70,866.46"/>
    </edge>
    <edge id=":1005499869_12" function="internal">
        <lane id=":1005499869_12_0" index="0" speed="13.89" length="5.36" shape="3558.86,870.01 3558.68,868.53 3558.09,867.44 3557.10,866.76 3555.70,866.46"/>
    </edge>
    <edge id=":1005499869_13" function="internal">
        <lane id=":1005499869_13_0" index="0" speed="13.89" length="9.77" shape="3558.86,870.01 3559.17,860.24"/>
    </edge>
    <edge id=":1005499869_14" function="internal">
        <lane id=":1005499869_14_0" index="0" speed="13.89" length="10.59" shape="3558.86,870.01 3559.31,867.12 3560.59,865.12 3562.68,864.01 3565.60,863.78"/>
    </edge>
    <edge id=":1005499869_15" function="internal">
        <lane id=":1005499869_15_0" index="0" speed="13.89" length="4.82" shape="3558.86,870.01 3559.70,868.78 3560.53,868.38 3561.35,868.80 3562.15,870.05"/>
    </edge>
    <edge id=":1005499879_0" function="internal">
        <lane id=":1005499879_0_0" index="0" speed="8.33" length="4.99" shape="2733.58,882.02 2732.22,882.14 2731.22,882.67 2730.58,883.60 2730.31,884.94"/>
    </edge>
    <edge id=":1005499879_1" function="internal">
        <lane id=":1005499879_1_0" index="0" speed="8.33" length="9.47" shape="2733.58,882.02 2724.13,881.41"/>
    </edge>
    <edge id=":1005499879_2" function="internal">
        <lane id=":1005499879_2_0" index="0" speed="8.33" length="4.82" shape="2733.58,882.02 2732.39,881.13 2732.02,880.28 2732.47,879.48 2733.75,878.72"/>
    </edge>
    <edge id=":1005499879_3" function="internal">
        <lane id=":1005499879_3_0" index="0" speed="8.33" length="9.40" shape="2724.38,878.12 2733.75,878.72"/>
    </edge>
    <edge id=":1005499879_4" function="internal">
        <lane id=":1005499879_4_0" index="0" speed="8.33" length="10.27" shape="2724.38,878.12 2727.11,878.73 2729.01,880.06 2730.08,882.13 2730.31,884.94"/>
    </edge>
    <edge id=":1005499879_5" function="internal">
        <lane id=":1005499879_5_0" index="0" speed="8.33" length="4.82" shape="2724.38,878.12 2725.55,879.04 2725.90,879.89 2725.43,880.68 2724.13,881.41"/>
    </edge>
    <edge id=":1005499879_6" function="internal">
        <lane id=":1005499879_6_0" index="0" speed="8.33" length="5.01" shape="2727.02,884.75 2726.90,883.38 2726.39,882.36 2725.46,881.71 2724.13,881.41"/>
    </edge>
    <edge id=":1005499879_7" function="internal">
        <lane id=":1005499879_7_0" index="0" speed="8.33" length="10.30" shape="2727.02,884.75 2727.58,881.99 2728.88,880.06 2730.94,878.97 2733.75,878.72"/>
    </edge>
    <edge id=":1005499879_8" function="internal">
        <lane id=":1005499879_8_0" index="0" speed="8.33" length="4.82" shape="2727.02,884.75 2727.91,883.56 2728.76,883.20 2729.56,883.66 2730.31,884.94"/>
    </edge>
    <edge id=":1005499885_0" function="internal">
        <lane id=":1005499885_0_0" index="0" speed="8.33" length="5.00" shape="2888.72,890.94 2887.35,891.05 2886.35,891.58 2885.71,892.51 2885.44,893.85"/>
    </edge>
    <edge id=":1005499885_1" function="internal">
        <lane id=":1005499885_1_0" index="0" speed="8.33" length="9.49" shape="2888.72,890.94 2879.24,890.36"/>
    </edge>
    <edge id=":1005499885_2" function="internal">
        <lane id=":1005499885_2_0" index="0" speed="8.33" length="4.82" shape="2888.72,890.94 2887.53,890.04 2887.16,889.19 2887.62,888.40 2888.91,887.64"/>
    </edge>
    <edge id=":1005499885_3" function="internal">
        <lane id=":1005499885_3_0" index="0" speed="8.33" length="9.48" shape="2879.45,887.07 2888.91,887.64"/>
    </edge>
    <edge id=":1005499885_4" function="internal">
        <lane id=":1005499885_4_0" index="0" speed="8.33" length="10.31" shape="2879.45,887.07 2882.21,887.64 2884.13,888.97 2885.21,891.04 2885.44,893.85"/>
    </edge>
    <edge id=":1005499885_5" function="internal">
        <lane id=":1005499885_5_0" index="0" speed="8.33" length="4.82" shape="2879.45,887.07 2880.63,887.97 2880.99,888.82 2880.53,889.62 2879.24,890.36"/>
    </edge>
    <edge id=":1005499885_6" function="internal">
        <lane id=":1005499885_6_0" index="0" speed="8.33" length="5.00" shape="2882.15,893.65 2882.03,892.29 2881.51,891.28 2880.58,890.64 2879.24,890.36"/>
    </edge>
    <edge id=":1005499885_7" function="internal">
        <lane id=":1005499885_7_0" index="0" speed="8.33" length="10.31" shape="2882.15,893.65 2882.71,890.89 2884.03,888.96 2886.09,887.88 2888.91,887.64"/>
    </edge>
    <edge id=":1005499885_8" function="internal">
        <lane id=":1005499885_8_0" index="0" speed="8.33" length="4.82" shape="2882.15,893.65 2883.04,892.47 2883.89,892.11 2884.69,892.57 2885.44,893.85"/>
    </edge>
    <edge id=":1005499907_0" function="internal">
        <lane id=":1005499907_0_0" index="0" speed="13.89" length="9.46" shape="3772.88,880.82 3763.44,880.16"/>
    </edge>
    <edge id=":1005499907_1" function="internal">
        <lane id=":1005499907_1_0" index="0" speed="13.89" length="5.09" shape="3772.88,880.82 3770.18,880.22 3768.29,878.87"/>
    </edge>
    <edge id=":1005499907_2" function="internal">
        <lane id=":1005499907_2_0" index="0" speed="13.89" length="2.41" shape="3772.88,880.82 3771.71,879.91 3771.36,879.06"/>
    </edge>
    <edge id=":1005499907_9" function="internal">
        <lane id=":1005499907_9_0" index="0" speed="13.89" length="5.22" shape="3768.29,878.87 3767.20,876.77 3766.92,873.93"/>
    </edge>
    <edge id=":1005499907_10" function="internal">
        <lane id=":1005499907_10_0" index="0" speed="13.89" length="2.41" shape="3771.36,879.06 3771.83,878.26 3773.12,877.53"/>
    </edge>
    <edge id=":1005499907_3" function="internal">
        <lane id=":1005499907_3_0" index="0" speed="13.89" length="5.13" shape="3770.21,874.05 3770.35,875.49 3770.88,876.55 3771.80,877.23 3773.12,877.53"/>
    </edge>
    <edge id=":1005499907_4" function="internal">
        <lane id=":1005499907_4_0" index="0" speed="13.89" length="10.47" shape="3770.21,874.05 3769.70,876.89 3768.40,878.85 3766.31,879.94 3763.44,880.16"/>
    </edge>
    <edge id=":1005499907_5" function="internal">
        <lane id=":1005499907_5_0" index="0" speed="13.89" length="4.82" shape="3770.21,874.05 3769.34,875.26 3768.50,875.64 3767.69,875.20 3766.92,873.93"/>
    </edge>
    <edge id=":1005499907_6" function="internal">
        <lane id=":1005499907_6_0" index="0" speed="13.89" length="5.03" shape="3763.66,876.87 3765.04,876.76 3766.04,876.24 3766.67,875.29 3766.92,873.93"/>
    </edge>
    <edge id=":1005499907_7" function="internal">
        <lane id=":1005499907_7_0" index="0" speed="13.89" length="9.49" shape="3763.66,876.87 3773.12,877.53"/>
    </edge>
    <edge id=":1005499907_8" function="internal">
        <lane id=":1005499907_8_0" index="0" speed="13.89" length="2.41" shape="3763.66,876.87 3764.84,877.77 3765.20,878.62"/>
    </edge>
    <edge id=":1005499907_11" function="internal">
        <lane id=":1005499907_11_0" index="0" speed="13.89" length="2.41" shape="3765.20,878.62 3764.73,879.42 3763.44,880.16"/>
    </edge>
    <edge id=":1005499944_0" function="internal">
        <lane id=":1005499944_0_0" index="0" speed="13.89" length="5.07" shape="3773.81,863.28 3772.41,863.35 3771.40,863.85 3770.76,864.79 3770.51,866.17"/>
    </edge>
    <edge id=":1005499944_1" function="internal">
        <lane id=":1005499944_1_0" index="0" speed="13.89" length="9.56" shape="3773.81,863.28 3764.28,862.51"/>
    </edge>
    <edge id=":1005499944_2" function="internal">
        <lane id=":1005499944_2_0" index="0" speed="13.89" length="5.30" shape="3773.81,863.28 3770.98,862.61 3769.04,861.22"/>
    </edge>
    <edge id=":1005499944_3" function="internal">
        <lane id=":1005499944_3_0" index="0" speed="13.89" length="2.41" shape="3773.81,863.28 3772.66,862.34 3772.33,861.48"/>
    </edge>
    <edge id=":1005499944_16" function="internal">
        <lane id=":1005499944_16_0" index="0" speed="13.89" length="5.17" shape="3769.04,861.22 3767.99,859.12 3767.83,856.30"/>
    </edge>
    <edge id=":1005499944_17" function="internal">
        <lane id=":1005499944_17_0" index="0" speed="13.89" length="2.41" shape="3772.33,861.48 3772.82,860.70 3774.13,860.00"/>
    </edge>
    <edge id=":1005499944_4" function="internal">
        <lane id=":1005499944_4_0" index="0" speed="13.89" length="5.17" shape="3771.12,856.60 3771.20,857.97 3771.73,858.99 3772.71,859.66 3774.13,860.00"/>
    </edge>
    <edge id=":1005499944_5" function="internal">
        <lane id=":1005499944_5_0" index="0" speed="13.89" length="9.59" shape="3771.12,856.60 3770.51,866.17"/>
    </edge>
    <edge id=":1005499944_6" function="internal">
        <lane id=":1005499944_6_0" index="0" speed="13.89" length="10.24" shape="3771.12,856.60 3770.48,859.34 3769.12,861.23 3767.06,862.29 3764.28,862.51"/>
    </edge>
    <edge id=":1005499944_7" function="internal">
        <lane id=":1005499944_7_0" index="0" speed="13.89" length="4.82" shape="3771.12,856.60 3770.18,857.76 3769.33,858.09 3768.54,857.61 3767.83,856.30"/>
    </edge>
    <edge id=":1005499944_8" function="internal">
        <lane id=":1005499944_8_0" index="0" speed="13.89" length="5.02" shape="3764.50,859.21 3765.85,859.11 3766.86,858.58 3767.52,857.65 3767.83,856.30"/>
    </edge>
    <edge id=":1005499944_9" function="internal">
        <lane id=":1005499944_9_0" index="0" speed="13.89" length="9.67" shape="3764.50,859.21 3774.13,860.00"/>
    </edge>
    <edge id=":1005499944_10" function="internal">
        <lane id=":1005499944_10_0" index="0" speed="13.89" length="5.29" shape="3764.50,859.21 3767.22,859.80 3769.13,861.15 3769.21,861.30"/>
    </edge>
    <edge id=":1005499944_11" function="internal">
        <lane id=":1005499944_11_0" index="0" speed="13.89" length="2.41" shape="3764.50,859.21 3765.68,860.12 3766.04,860.97"/>
    </edge>
    <edge id=":1005499944_18" function="internal">
        <lane id=":1005499944_18_0" index="0" speed="13.89" length="5.13" shape="3769.21,861.30 3770.23,863.28 3770.51,866.17"/>
    </edge>
    <edge id=":1005499944_19" function="internal">
        <lane id=":1005499944_19_0" index="0" speed="13.89" length="2.41" shape="3766.04,860.97 3765.57,861.76 3764.28,862.51"/>
    </edge>
    <edge id=":1005499944_12" function="internal">
        <lane id=":1005499944_12_0" index="0" speed="13.89" length="5.20" shape="3767.21,866.04 3767.08,864.57 3766.54,863.49 3765.61,862.80 3764.28,862.51"/>
    </edge>
    <edge id=":1005499944_13" function="internal">
        <lane id=":1005499944_13_0" index="0" speed="13.89" length="9.76" shape="3767.21,866.04 3767.83,856.30"/>
    </edge>
    <edge id=":1005499944_14" function="internal">
        <lane id=":1005499944_14_0" index="0" speed="13.89" length="10.62" shape="3767.21,866.04 3767.74,863.16 3769.07,861.18 3771.20,860.13 3774.13,860.00"/>
    </edge>
    <edge id=":1005499944_15" function="internal">
        <lane id=":1005499944_15_0" index="0" speed="13.89" length="4.82" shape="3767.21,866.04 3768.08,864.84 3768.92,864.46 3769.73,864.90 3770.51,866.17"/>
    </edge>
    <edge id=":1005500009_0" function="internal">
        <lane id=":1005500009_0_0" index="0" speed="8.33" length="9.46" shape="2811.36,886.19 2801.91,885.65"/>
    </edge>
    <edge id=":1005500009_1" function="internal">
        <lane id=":1005500009_1_0" index="0" speed="11.11" length="10.36" shape="2811.36,886.19 2808.58,885.62 2806.65,884.29 2805.58,882.21 2805.38,879.38"/>
    </edge>
    <edge id=":1005500009_2" function="internal">
        <lane id=":1005500009_2_0" index="0" speed="8.33" length="4.82" shape="2811.36,886.19 2810.18,885.29 2809.81,884.44 2810.28,883.65 2811.56,882.90"/>
    </edge>
    <edge id=":1005500009_3" function="internal">
        <lane id=":1005500009_3_0" index="0" speed="11.11" length="5.01" shape="2808.67,879.60 2808.77,880.97 2809.28,881.98 2810.21,882.62 2811.56,882.90"/>
    </edge>
    <edge id=":1005500009_4" function="internal">
        <lane id=":1005500009_4_0" index="0" speed="11.11" length="10.30" shape="2808.67,879.60 2808.08,882.37 2806.76,884.31 2804.70,885.40 2801.91,885.65"/>
    </edge>
    <edge id=":1005500009_5" function="internal">
        <lane id=":1005500009_5_0" index="0" speed="13.89" length="4.82" shape="2808.67,879.60 2807.76,880.78 2806.91,881.14 2806.11,880.67 2805.38,879.38"/>
    </edge>
    <edge id=":1005500009_6" function="internal">
        <lane id=":1005500009_6_0" index="0" speed="11.11" length="5.04" shape="2802.09,882.36 2803.45,882.23 2804.45,881.69 2805.09,880.74 2805.38,879.38"/>
    </edge>
    <edge id=":1005500009_7" function="internal">
        <lane id=":1005500009_7_0" index="0" speed="8.33" length="9.49" shape="2802.09,882.36 2811.56,882.90"/>
    </edge>
    <edge id=":1005500009_8" function="internal">
        <lane id=":1005500009_8_0" index="0" speed="8.33" length="4.82" shape="2802.09,882.36 2803.28,883.25 2803.65,884.09 2803.19,884.89 2801.91,885.65"/>
    </edge>
    <edge id=":1005500039_0" function="internal">
        <lane id=":1005500039_0_0" index="0" speed="13.89" length="4.82" shape="2809.29,823.92 2810.21,822.75 2811.06,822.40 2811.85,822.88 2812.58,824.17"/>
    </edge>
    <edge id=":1005500063_0" function="internal">
        <lane id=":1005500063_0_0" index="0" speed="13.89" length="5.02" shape="3566.14,849.72 3564.77,849.83 3563.76,850.35 3563.13,851.29 3562.86,852.64"/>
    </edge>
    <edge id=":1005500063_1" function="internal">
        <lane id=":1005500063_1_0" index="0" speed="13.89" length="9.51" shape="3566.14,849.72 3556.65,849.14"/>
    </edge>
    <edge id=":1005500063_2" function="internal">
        <lane id=":1005500063_2_0" index="0" speed="13.89" length="5.19" shape="3566.14,849.72 3563.35,849.14 3561.42,847.81"/>
    </edge>
    <edge id=":1005500063_3" function="internal">
        <lane id=":1005500063_3_0" index="0" speed="13.89" length="2.41" shape="3566.14,849.72 3564.96,848.82 3564.60,847.97"/>
    </edge>
    <edge id=":1005500063_16" function="internal">
        <lane id=":1005500063_16_0" index="0" speed="13.89" length="5.17" shape="3561.42,847.81 3560.35,845.73 3560.13,842.91"/>
    </edge>
    <edge id=":1005500063_17" function="internal">
        <lane id=":1005500063_17_0" index="0" speed="13.89" length="2.41" shape="3564.60,847.97 3565.06,847.17 3566.35,846.43"/>
    </edge>
    <edge id=":1005500063_4" function="internal">
        <lane id=":1005500063_4_0" index="0" speed="13.89" length="5.03" shape="3563.43,843.13 3563.53,844.50 3564.05,845.50 3564.99,846.15 3566.35,846.43"/>
    </edge>
    <edge id=":1005500063_5" function="internal">
        <lane id=":1005500063_5_0" index="0" speed="13.89" length="9.53" shape="3563.43,843.13 3562.86,852.64"/>
    </edge>
    <edge id=":1005500063_6" function="internal">
        <lane id=":1005500063_6_0" index="0" speed="13.89" length="10.31" shape="3563.43,843.13 3562.84,845.90 3561.52,847.82 3559.45,848.90 3556.65,849.14"/>
    </edge>
    <edge id=":1005500063_7" function="internal">
        <lane id=":1005500063_7_0" index="0" speed="13.89" length="4.82" shape="3563.43,843.13 3562.52,844.31 3561.67,844.66 3560.87,844.20 3560.13,842.91"/>
    </edge>
    <edge id=":1005500063_8" function="internal">
        <lane id=":1005500063_8_0" index="0" speed="13.89" length="5.02" shape="3556.84,845.84 3558.20,845.73 3559.21,845.20 3559.85,844.26 3560.13,842.91"/>
    </edge>
    <edge id=":1005500063_9" function="internal">
        <lane id=":1005500063_9_0" index="0" speed="13.89" length="9.53" shape="3556.84,845.84 3566.35,846.43"/>
    </edge>
    <edge id=":1005500063_10" function="internal">
        <lane id=":1005500063_10_0" index="0" speed="13.89" length="5.27" shape="3556.84,845.84 3559.60,846.41 3561.52,847.73 3561.58,847.84"/>
    </edge>
    <edge id=":1005500063_11" function="internal">
        <lane id=":1005500063_11_0" index="0" speed="13.89" length="2.41" shape="3556.84,845.84 3558.03,846.74 3558.39,847.59"/>
    </edge>
    <edge id=":1005500063_18" function="internal">
        <lane id=":1005500063_18_0" index="0" speed="13.89" length="5.07" shape="3561.58,847.84 3562.61,849.80 3562.86,852.64"/>
    </edge>
    <edge id=":1005500063_19" function="internal">
        <lane id=":1005500063_19_0" index="0" speed="13.89" length="2.41" shape="3558.39,847.59 3557.93,848.39 3556.65,849.14"/>
    </edge>
    <edge id=":1005500063_12" function="internal">
        <lane id=":1005500063_12_0" index="0" speed="13.89" length="5.05" shape="3559.57,852.47 3559.45,851.08 3558.92,850.06 3557.99,849.41 3556.65,849.14"/>
    </edge>
    <edge id=":1005500063_13" function="internal">
        <lane id=":1005500063_13_0" index="0" speed="13.89" length="9.58" shape="3559.57,852.47 3560.13,842.91"/>
    </edge>
    <edge id=":1005500063_14" function="internal">
        <lane id=":1005500063_14_0" index="0" speed="13.89" length="10.39" shape="3559.57,852.47 3560.12,849.67 3561.43,847.73 3563.51,846.65 3566.35,846.43"/>
    </edge>
    <edge id=":1005500063_15" function="internal">
        <lane id=":1005500063_15_0" index="0" speed="13.89" length="4.82" shape="3559.57,852.47 3560.46,851.28 3561.30,850.91 3562.10,851.36 3562.86,852.64"/>
    </edge>
    <edge id=":1005883964_0" function="internal">
        <lane id=":1005883964_0_0" index="0" speed="13.89" length="3.76" shape="4060.38,970.90 4063.48,974.18"/>
        <lane id=":1005883964_0_1" index="1" speed="13.89" length="3.76" shape="4060.38,970.90 4060.19,973.91"/>
    </edge>
    <edge id=":1005883964_2" function="internal">
        <lane id=":1005883964_2_0" index="0" speed="13.89" length="2.41" shape="4060.38,970.90 4059.51,972.11 4058.67,972.49"/>
    </edge>
    <edge id=":1005883964_7" function="internal">
        <lane id=":1005883964_7_0" index="0" speed="13.89" length="2.41" shape="4058.67,972.49 4057.86,972.04 4057.08,970.78"/>
    </edge>
    <edge id=":1005883964_3" function="internal">
        <lane id=":1005883964_3_0" index="0" speed="13.89" length="4.77" shape="4056.91,973.63 4050.48,970.53"/>
        <lane id=":1005883964_3_1" index="1" speed="13.89" length="4.77" shape="4056.91,973.63 4053.78,970.65"/>
        <lane id=":1005883964_3_2" index="2" speed="13.89" length="4.77" shape="4056.91,973.63 4057.08,970.78"/>
    </edge>
    <edge id=":1005883964_6" function="internal">
        <lane id=":1005883964_6_0" index="0" speed="13.89" length="2.41" shape="4056.91,973.63 4057.83,972.47 4058.69,972.13"/>
    </edge>
    <edge id=":1005883964_8" function="internal">
        <lane id=":1005883964_8_0" index="0" speed="13.89" length="2.41" shape="4058.69,972.13 4059.47,972.60 4060.19,973.91"/>
    </edge>
    <edge id=":1005884007_0" function="internal">
        <lane id=":1005884007_0_0" index="0" speed="13.89" length="5.09" shape="4077.79,905.20 4076.37,900.31"/>
    </edge>
    <edge id=":1005886527_0" function="internal">
        <lane id=":1005886527_0_0" index="0" speed="13.89" length="4.37" shape="4064.20,958.01 4060.76,960.72"/>
    </edge>
    <edge id=":1005886527_1" function="internal">
        <lane id=":1005886527_1_0" index="0" speed="13.89" length="2.41" shape="4060.90,957.82 4060.01,959.01 4059.16,959.38"/>
    </edge>
    <edge id=":1005886527_6" function="internal">
        <lane id=":1005886527_6_0" index="0" speed="13.89" length="2.41" shape="4059.16,959.38 4058.36,958.92 4057.61,957.63"/>
    </edge>
    <edge id=":1005886527_2" function="internal">
        <lane id=":1005886527_2_0" index="0" speed="13.89" length="3.03" shape="4050.87,960.35 4051.02,957.25"/>
        <lane id=":1005886527_2_1" index="1" speed="13.89" length="3.03" shape="4054.17,960.47 4054.31,957.44"/>
        <lane id=":1005886527_2_2" index="2" speed="13.89" length="3.03" shape="4057.47,960.60 4057.61,957.63"/>
    </edge>
    <edge id=":1005886527_5" function="internal">
        <lane id=":1005886527_5_0" index="0" speed="13.89" length="3.20" shape="4057.47,960.60 4058.34,959.39 4059.18,959.01 4059.87,959.39"/>
    </edge>
    <edge id=":1005886527_7" function="internal">
        <lane id=":1005886527_7_0" index="0" speed="13.89" length="1.62" shape="4059.87,959.39 4059.99,959.45 4060.76,960.72"/>
    </edge>
    <edge id=":1009316783_0" function="internal">
        <lane id=":1009316783_0_0" index="0" speed="13.89" length="10.93" shape="4778.40,1174.03 4776.74,1171.40 4775.53,1169.39 4774.33,1167.37 4772.74,1164.69"/>
    </edge>
    <edge id=":1009316783_1" function="internal">
        <lane id=":1009316783_1_0" index="0" speed="13.89" length="11.01" shape="4778.40,1174.03 4776.98,1171.30 4776.47,1169.02 4776.43,1166.60 4776.42,1163.43"/>
    </edge>
    <edge id=":1018881109_0" function="internal">
        <lane id=":1018881109_0_0" index="0" speed="13.89" length="3.42" shape="5258.61,1153.57 5256.43,1150.93"/>
    </edge>
    <edge id=":1018881109_1" function="internal">
        <lane id=":1018881109_1_0" index="0" speed="13.89" length="4.82" shape="5258.61,1153.57 5257.76,1152.34 5257.69,1151.42 5258.38,1150.81 5259.83,1150.50"/>
    </edge>
    <edge id=":1033446651_0" function="internal">