[General]
# ============================ simulation configuration ============================
network = frankfurt_urban
# Provides only minimal status updates on the console.
cmdenv-express-mode = true
# Allows the simulation to ask missing parameter values interactively
cmdenv-interactive = false
# Limits how long the simulation should run (in simulation time)
sim-time-limit = 450s  
# Turns on the recording of the simulator events into an event log file. .elog file
record-eventlog = false
# If the runtime detects any error, it will generate a breakpoint so you will be able to 
# check the location and the context of the problem in your debugger.
debug-on-errors = false
# cmdenv-runs-to-execute specifies which simulation runs should be executed. 
#cmdenv-runs-to-execute 
# Specifies the search path for Tkenv plugins. Tkenv plugins are .tcl
#files that get evaluated on startup
tkenv-plugin-path = ../../../etc/plugins
# Recording results into the scalar file
# Recording results into the scalar file
**.tcpApp[*].**.scalar-recording = true
**.udpApp[*].**.scalar-recording = true
**.pingApp[*].**.scalar-recording = true
**.CN[*].**.scalar-recording = true
**.MA[*].**.scalar-recording = true
**.scalar-recording = false
# Recording output vector results
#**.CN[*].**.vector-recording = true
**.tcpApp[*].**.vector-recording = true
**.udpApp[*].**.vector-recording = true
**.pingApp[*].**.vector-recording = true
**.CN[*].**.vector-recording = true
**.MA[*].**.vector-recording = true
**.vector-recording = false
# Selects the kth set of automatic random number seeds for the simulation.
# Meaningful values include ${repetition} which is the repeat loop counter (see repeat= key), and ${runnumber}.
seed-set = 1
# printing debug information
**.debug = true
# User Interface: either use TKenv for Oment GUI or Cmdenv for console output
# user-interface = Cmdenv

# --------------------------- Animation configuration ---------------------------------
#**.viewTranslation = "1100 800"
#**.updateCanvasInterval = 10ms
#**.viewAngle = "isometric"
#**.leaveMovementTrail = true
#**.leaveIntersectionTrail = true
#**.leaveCommunicationTrail = true
#**.leaveCommunicationHeat = true
#**.displayCommunication = true
#**.displayCommunicationRange = true
#**.displayInterferenceRange = true
#**.drawCommunication2D = true

# ============================ Scenario and application configuration =================
# number of mobile nodes and data agents 
*.total_mn = 1
*.total_da = 1
# number of correspondent node
*.total_cn = 1
# disable id layer
#**.MA[*].idLayer.isIdLayerEnabled = false
**.DA[*].idLayer.enableNodeRequesting = true

# --------------------------- PING configuration -------------------------------------
*.MA[*].numPingApps = 1
*.MA[*].pingApp[*].destAddr = "CN[*]"
*.MA[*].pingApp[*].startTime = 10s
*.MA[*].pingApp[*].stopTime = 430s
*.MA[*].pingApp[*].packetSize = 64B
*.MA[*].pingApp[*].sendInterval = 0.1s	
#**.pingApp[*].printPing = false
#*.MA[*].pingApp[*].count = -1 # max no of pings to finish process
#*.MA[*].pingApp[*].stopTime = -1 # time to finish
# CN does not need to have a ping application. Ping responses are handled by IPv6.
*.CN[*].numPingApps = 0
*.CN[*].pingApp[*].destAddr = "DA[*]"
*.CN[*].pingApp[*].startTime = 10s
*.CN[*].pingApp[*].stopTime = 430s
*.CN[*].pingApp[*].packetSize = 64B
*.CN[*].pingApp[*].sendInterval = 0.01s	

# --------------------------- TCP configuration --------------------------------------
**.numTcpApps = 0
# mode 1 --------------------------------------
#**.MA*.tcpApp[*].typename = "TCPSessionApp"
#**.MA*.tcpApp[0].active = true
#**.MA*.tcpApp[0].localPort = -1
#**.MA*.tcpApp[0].connectAddress = "CN[*]"
#**.MA*.tcpApp[0].connectPort = 1000
#**.MA*.tcpApp[0].tOpen = 10s
#**.MA*.tcpApp[0].tSend = 10s
#**.MA*.tcpApp[0].sendBytes = 10000000B
#**.MA*.tcpApp[0].sendScript = ""
#**.MA*.tcpApp[0].tClose = 20s
# mode 2 --------------------------------------
**.MA[*].tcpApp[*].typename = "TCPBasicClientApp"
**.MA[*].tcpApp[*].localAddress = ""
**.MA[*].tcpApp[*].localPort = -1
**.MA[*].tcpApp[*].connectAddress = "CN[*]"
**.MA[*].tcpApp[*].connectPort = 1000 #same destination port numbers
**.MA[*].tcpApp[*].startTime = 10s
**.MA[*].tcpApp[*].stopTime =  430s
**.MA[*].tcpApp[*].numRequestsPerSession = 1
**.MA[*].tcpApp[*].requestLength = 200B
**.MA[*].tcpApp[*].replyLength = 1250B
**.MA[*].tcpApp[*].thinkTime = 0.01s
**.MA[*].tcpApp[*].idleInterval = 0.01s
**.MA[*].tcpApp[*].dataTransferMode = "object"
# ---------------------------------------------
**.CN[*].tcpApp[*].typename = "TCPGenericSrvApp"
**.CN[*].tcpApp[0].localAddress = ""
**.CN[*].tcpApp[0].localPort = 1000
**.CN[*].tcpApp[0].replyDelay = 0

# --------------------------- UDP configuration --------------------------------------
**.numUdpApps = 0 
**.udpApp[*].typename = "UDPBasicBurst"
**.udpApp[*].startTime = 10s
#**.udpApp[*].stopTime = 190s
**.udpApp[*].delayLimit = 3s
**.udpApp[*].chooseDestAddrMode = "perBurst"
**.MA[*].udpApp[*].destAddresses = "CN[*]"
**.MA[*].udpApp[*].destPort = 5000
**.MA[*].udpApp[*].messageLength = 500B
**.MA[*].udpApp[*].sendInterval = 0.01s
#**.CN[*].udpApp[*].localPort = 
**.CN[*].udpApp[*].destAddresses = ""
**.CN[*].udpApp[*].burstDuration = 1s
**.CN[*].udpApp[*].sleepDuration = 0.25s
# ---------------------------------------------
**.MA[*].udpApp[*].typename = "UDPVideoStreamCli"
**.MA[*].udpApp[*].serverAddress = "CN[*]"
**.MA[*].udpApp[*].serverPort = 1000
**.CN[*].udpApp[*].typename = "UDPVideoStreamSvr"
**.CN[*].udpApp[*].localPort = 1000
**.CN[*].udpApp[*].sendInterval = 100ms
**.CN[*].udpApp[*].packetLen = 1000B
**.CN[*].udpApp[*].videoSize = 15000000B
# ---------------------------------------------
#**.MA[*].udpApp[*].typename = "UDPBasicApp"
#**.MA[*].udpApp[*].destAddresses = "CN[*]"
#**.MA[*].udpApp[*].destPort = 5000
#**.MA[*].udpApp[*].messageLength = 300B
#**.MA[*].udpApp[*].startTime = 10s
#**.MA[*].udpApp[*].sendInterval = 1s
## --------------------------------------------
#**.CN[*].udpApp[*].typename = "UDPEchoApp"
#**.CN[*].udpApp[*].localPort = 5000

# ============================ SUMO configuration ====================================
*.manager.numVehicles = 1
*.manager.updateInterval = 0.1s
#*.manager.connectAt = 1s
*.manager.host = "localhost"
*.manager.port = 9999
*.manager.moduleType = "inet.node.ipv6mev.MobileAgent"
*.manager.moduleName = "MA"
*.manager.moduleDisplayString = ""
*.manager.autoShutdown = true
*.manager.margin = 25
*.manager.useRouteDistributions = false
*.manager.launchConfig = xmldoc("map.launchd.xml")
# --------------------------- Mobility configuration -----------------------------------
*.MA[*].mobilityType = "TraCIMobility"
**.constraintAreaMinX = 0m
**.constraintAreaMinY = 0m
**.constraintAreaMinZ = 0m
**.constraintAreaMaxX = 6231m
**.constraintAreaMaxY = 2104m
**.constraintAreaMaxZ = 50m
# --------------------------- Environment configuration --------------------------------
**.spaceMinX = 0m
**.spaceMinY = 0m
**.spaceMinZ = 0m
**.spaceMaxX = 6231m
**.spaceMaxY = 2104m
**.spaceMaxZ = 50m
# ---------------------------------------------
#**.obstacleLossType = "TracingObstacleLoss"
#**.config = xmldoc("outdoor.xml")
#**.axisLength = 100m

# ============================ ID layer configuration ==================================
**.MA[*].idLayer.controlAgent = "CA"
**.CA.idLayer.dataAgentAddress = "DA[*]"


# ============================ Network layer configuration =============================
**.neighbourDiscovery.minIntervalBetweenRAs = 0.03s 
**.neighbourDiscovery.maxIntervalBetweenRAs = 0.07s 
# ---------------------------------------------
**.ipv6.procDelay = 10us + uniform(-5us,5us)
**.forwarding = false
# ---------------------------------------------
# Relay unit (Router and Access points) configuration
**.relayUnit.processingTime = 2us
**.relayUnit.addressTableSize = 100
**.relayUnit.agingTime = 120s
**.relayUnit.bufferSize = 1MiB
**.relayUnit.highWatermark = 512KiB
**.relayUnit.pauseUnits = 300  # pause for 300*512 bit (19200 byte) time
**.relayUnit.addressTableFile = ""
**.relayUnit.numCPUs = 2

# ============================ Link layer configuration =================================
**.mac.address = "auto"
**.mac.EDCA = true # ETSI 302 663  
**.mac.AIFSN0 = 9 # 
**.mac.AIFSN1 = 6 # 
**.mac.AIFSN2 = 3 # 
**.mac.AIFSN3 = 2 # 
**.mac.defaultAC = 2 # 
**.mac.AIFSN = 2 # 
**.mac.cwMinData = 7 # 
**.mac.cwMaxData = 15 # 
**.mac.slotTime = 13us
# ---------------------------------------------
**.mgmt.numAuthSteps = 2
**.mgmt.beaconInterval = 0.05s # 20Hz beacon intervall from 11pDC specification for freeway; 10Hz for urban environment
**.wlan*.opMode = "p" # does not work! only g
**.wlan*.bitrate = 18Mbps
**.wlan*.mac.basicBitrate = 6Mbps
**.wlan*.mac.controlBitrate = 6Mbps
**.wlan*.mac.autoBitrate = 2
#**.MA*.**.bitrate = 18Mbps
#**.wlan*.mac.EDCA = false
#**.mgmt.frameCapacity = 10
# --------------------------- Mobile node configuration --------------------------------
**.MA*.numRadios = 1
**.MA*.wlan[*].agent.default_ssid = "" # should be empty, else the authentication process fails
**.MA*.wlan[*].agent.activeScan = true
**.MA*.wlan[*].agent.probeDelay = 0.05s
**.MA*.wlan[*].agent.minChannelTime = 0.05s
**.MA*.wlan[*].agent.maxChannelTime = 0.2s #+ uniform(-0.001s,0.001s)
**.MA*.wlan[*].agent.associationTimeout = 1s
**.MA*.wlan[*].agent.authenticationTimeout = 1s
**.MA*.wlan[0].agent.channelsToScan = "172 176 182"  # ${channelNumber=2..10}
**.MA*.wlan[1].agent.channelsToScan = "176"  # "" means all
**.MA*.wlan[2].agent.channelsToScan = "182"  #
#**.MA*.wlan[1].agent.activeScan = true
#**.MA*.wlan[1].agent.default_ssid = ""
#**.MA*.wlan[1].agent.probeDelay = 0.1s # ETSI beacon intervall 20 Hz
#**.MA*.wlan[1].agent.minChannelTime = 0.1s
#**.MA*.wlan[1].agent.maxChannelTime = 0.5s
#**.MA*.wlan[1].agent.associationTimeout = 3s
#**.MA*.wlan[2].agent.activeScan = true
#**.MA*.wlan[2].agent.default_ssid = ""
#**.MA*.wlan[2].agent.probeDelay = 0.1s
#**.MA*.wlan[2].agent.minChannelTime = 0.1s
#**.MA*.wlan[2].agent.maxChannelTime = 0.5s
#**.MA*.wlan[2].agent.associationTimeout = 3s
# --------------------------- Infrastructure configuration ------------------------------
#**.wlan*.mac.retryLimit = 7
#**.wlan*.mac.cwMinData = 7
#**.wlan*.mac.cwMinBroadcast = 31
**.AP_1.wlan*.mgmt.ssid = "AP_1"
**.AP_2.wlan*.mgmt.ssid = "AP_2"
**.AP_3.wlan*.mgmt.ssid = "AP_3"
**.AP_4.wlan*.mgmt.ssid = "AP_4"
**.AP_5.wlan*.mgmt.ssid = "AP_5"
**.AP_6.wlan*.mgmt.ssid = "AP_6"
**.AP_7.wlan*.mgmt.ssid = "AP_7"
**.AP_8.wlan*.mgmt.ssid = "AP_8"
**.AP_9.wlan*.mgmt.ssid = "AP_9"
**.AP_1.wlan*.radio.channelNumber = 172
**.AP_2.wlan*.radio.channelNumber = 176
**.AP_3.wlan*.radio.channelNumber = 182
**.AP_4.wlan*.radio.channelNumber = 172
**.AP_5.wlan*.radio.channelNumber = 176
**.AP_6.wlan*.radio.channelNumber = 182
**.AP_7.wlan*.radio.channelNumber = 172
**.AP_8.wlan*.radio.channelNumber = 176
**.AP_9.wlan*.radio.channelNumber = 182
**.relayUnitType = "MACRelayUnit"
# ---------------------------------------------
**.eth[*].queueType = "DropTailQueue" # in routers
**.eth[*].mac.promiscuous = false
**.eth[*].mac.duplexMode = true
#**.eth[*].queue.pauseQueue.frameCapacity = 10  # in routers
**.ppp[*].queueType = "DropTailQueue" # in routers
**.ppp[*].queue.frameCapacity = 10  # in routers
# ============================ Physical layer configuration =================================
**.radio.bandName = "5 GHz"
**.radio.bandwidth = 10 MHz
**.radio.antennaType = "IsotropicAntenna"
**.radio.carrierFrequency = 5.89e9 Hz # ETSI 302571 - 6.10.2  
**.radio.transmitter.power = 200mW # ETSI 302663-4.3: G5 SCH2 channelNo 178; rate=12 Mbit/s; power_limit=23dBm
**.radio.receiver.sensitivity = -77dBm # -77dBm Defined as min SNR value to distinguish signal from noise. If received signal is below this value it is interpreted as noise. Value taken from C2C  system profile v1.0.4 
**.radio.receiver.energyDetection = -62dBm # -62dBm
**.radio.receiver.snirThreshold = 8dB # defined as minimum SNR to try to interpret data. It is calculated from the sum of all received noise signals. Taken from ETSI 102687
**.radioMedium.**.maxTransmissionPower = 200mW
**.radio.transmitter.modulation = "QAM-16"
**.radio.receiver.modulation = "QAM-16"
**.radioMedium.pathLossType = "RicianFading" # Low packet drop: 10% - 20%
#**.radioMedium.pathLossType = "RayleighFading" # High packet drop: 30% - 50%
#**.radioMedium.pathLossType = "NakagamiFading" # Very high packet drop: 90% - 100%
#**.radioMedium.pathLossType = "FreeSpacePathLoss"
**.radioMedium.mediumLimitCache.minReceptionPower = -85dBm # ETSI  302571 6.10.2: specifies rec sensitivity -85dBm for BPSK
**.radioMedium.mediumLimitCache.minInterferencePower = -100dBm # if to high, bands overlap and causes error 'not supported'
**.radioMedium.backgroundNoise.power = -100dBm # [-104,-110] only working
**.radioMedium.propagationType = "ConstantSpeedPropagation"
#**.radioMedium.rangeFilter = "communicationRange" # Does not work. Causes error 139
#**.radioMedium.mediumLimitCache.maxCommunicationRange = 600m # ETSI102687- Table A.3
#**.radioMedium.listeningFilter = true # does not work
#**.radioMedium.radioModeFilter = true # does not work

# ======================================================= Run configuration # ========================================================
# ====================================================================================================================================
# ====================================================================================================================================

[Config Ping_CN_to_MA]
# --------------------------- PING configuration -------------------------------------
# MA needs to initiate the communication to establish a tuple in Data Agent
*.MA[*].numPingApps = 1
*.MA[*].pingApp[*].destAddr = "CN[*]"
*.MA[*].pingApp[*].startTime = 8s
*.MA[*].pingApp[*].stopTime = 9s
*.MA[*].pingApp[*].packetSize = 64B
*.MA[*].pingApp[*].sendInterval = 0.1s	
*.CN[*].numPingApps = 1 
*.CN[*].pingApp[*].destAddr = "DA[*]"
*.CN[*].pingApp[*].startTime = 10s
*.CN[*].pingApp[*].stopTime = 430s
*.CN[*].pingApp[*].packetSize = 64B
*.CN[*].pingApp[*].sendInterval = 0.01s	

#[Config Ping_MA_to_CN]
## --------------------------- PING configuration -------------------------------------
##sim-time-limit = 225s  
#*.MA[*].numPingApps = 1
#*.MA[*].pingApp[*].destAddr = "CN[*]"
#*.MA[*].pingApp[*].startTime = 10s
#*.MA[*].pingApp[*].stopTime = 430s
#*.MA[*].pingApp[*].packetSize = 64B
#*.MA[*].pingApp[*].sendInterval = 0.1s	
#**.radioMedium.backgroundNoise.power = -105dBm

[Config Ping_MA_to_CN]
# --------------------------- PING configuration -------------------------------------
#sim-time-limit = 225s  
*.MA[*].numPingApps = 1
*.MA[*].pingApp[*].destAddr = "CN[*]"
*.MA[*].pingApp[*].startTime = 10s # truncnormal(10s,4s)
*.MA[*].pingApp[*].stopTime = 430s
*.MA[*].pingApp[*].packetSize = 64B
*.MA[*].pingApp[*].sendInterval = 0.1s	# 0.05s + uniform(-0.001s,0.001s)
#**.radioMedium.backgroundNoise.power = -110dBm

[Config TCP_MA_to_CN]
# --------------------------- TCP configuration --------------------------------------
**.numTcpApps = 1
# mode 2 --------------------------------------
**.MA[*].tcpApp[*].typename = "TCPBasicClientApp"
**.MA[*].tcpApp[*].localAddress = ""
**.MA[*].tcpApp[*].localPort = -1
**.MA[*].tcpApp[*].connectAddress = "CN[*]"
**.MA[*].tcpApp[*].connectPort = 1000 #same destination port numbers
**.MA[*].tcpApp[*].startTime = 10s
**.MA[*].tcpApp[*].stopTime =  430s
**.MA[*].tcpApp[*].numRequestsPerSession = 100000
**.MA[*].tcpApp[*].requestLength = 100B
**.MA[*].tcpApp[*].replyLength = 100B
**.MA[*].tcpApp[*].thinkTime = 0.01s
**.MA[*].tcpApp[*].idleInterval = 0s
**.MA[*].tcpApp[*].reconnectInterval = 0s
# ---------------------------------------------
**.CN[*].tcpApp[*].typename = "TCPGenericSrvApp"
**.CN[*].tcpApp[*].replyDelay = 0.003s
**.CN[*].tcpApp[*].localPort = 1000
**.CN[*].tcpApp[*].dataTransferMode = "object"

[Config ETSI302663_BestEffort] # SCH 176 AC_BE
**.mac.EDCA = true # ETSI 302663 B4.4
**.mac.AIFSN0 = 9 # 
**.mac.AIFSN1 = 6 # 
**.mac.AIFSN2 = 3 # 
**.mac.AIFSN3 = 2 # 
**.mac.defaultAC = 1 # 
**.mac.AIFSN = 1 # 
**.mac.cwMinData = 15 # 
**.mac.cwMaxData = 1023 # 
**.mac.slotTime = 13us
# ---------------------------------------------
**.radio.carrierFrequency = 5.88e9 Hz
**.radio.transmitter.power = 200mW # ETSI 302663-4.3: G5 SCH2 channelNo 178; rate=12 Mbit/s; power_limit=23dBm
**.radio.receiver.sensitivity = -82dBm # Defined as min SNR value to distinguish signal from noise. If received signal is below this value it is interpreted as noise. Value taken from C2C  system profile v1.0.4 
**.radio.receiver.energyDetection = -62dBm
**.radio.receiver.snirThreshold = 3dB # defined as minimum SNR to try to interpret data. It is calculated from the sum of all received noise signals. Taken from ETSI 102687
**.radioMedium.**.maxTransmissionPower = 200mW 
**.radio.transmitter.modulation = "QPSK"
**.radio.receiver.modulation = "QPSK"
**.radioMedium.mediumLimitCache.minReceptionPower = -85dBm # ETSI  302571 6.10.2: specifies rec sensitivity -85dBm for BPSK
**.radioMedium.mediumLimitCache.minInterferencePower = -95dBm # same to background noise power
**.bitrate = 6Mbps
**.radioMedium.pathLossType = "RicianFading" # Low packet drop: 10% - 20%
#**.radioMedium.pathLossType = "RayleighFading" # High packet drop: 30% - 50%
#**.radioMedium.pathLossType = "NakagamiFading" # Very high packet drop: 90% - 100%

[Config ETSI302663_Video] # SCH 178 AC_VI
**.mac.EDCA = true # ETSI 302 663  
**.mac.AIFSN0 = 9 # 
**.mac.AIFSN1 = 6 # 
**.mac.AIFSN2 = 3 # 
**.mac.AIFSN3 = 2 # 
**.mac.defaultAC = 2 # determines wait time 
**.mac.AIFSN = 2 # 
**.mac.cwMinData = 7 # 
**.mac.cwMaxData = 15 # 
**.mac.slotTime = 13us
# ---------------------------------------------
**.radio.carrierFrequency = 5.89e9 Hz # ETSI 302571 - 6.10.2  
**.radio.transmitter.power = 200mW # ETSI 302663-4.3: G5 SCH2 channelNo 178; rate=12 Mbit/s; power_limit=23dBm
**.radio.receiver.sensitivity = -77dBm # Defined as min SNR value to distinguish signal from noise. If received signal is below this value it is interpreted as noise. Value taken from C2C  system profile v1.0.4 
**.radio.receiver.energyDetection = -62dBm
**.radio.receiver.snirThreshold = 8dB # defined as minimum SNR to try to interpret data. It is calculated from the sum of all received noise signals. Taken from ETSI 102687
**.radioMedium.**.maxTransmissionPower = 200mW
**.radio.transmitter.modulation = "QAM-16"
**.radio.receiver.modulation = "QAM-16"
**.radioMedium.mediumLimitCache.minReceptionPower = -85dBm # ETSI  302571 6.10.2: specifies rec sensitivity -85dBm for BPSK
**.radioMedium.mediumLimitCache.minInterferencePower = -95dBm # same to background noise power
**.bitrate = 18Mbps
**.radioMedium.pathLossType = "RicianFading" # Low packet drop: 10% - 20%
#**.radioMedium.pathLossType = "RayleighFading" # High packet drop: 30% - 50%
#**.radioMedium.pathLossType = "NakagamiFading" # Very high packet drop: 90% - 100%