<?xml version="1.0" encoding="UTF-8"?>

<!-- generated on Mon Aug 17 15:55:14 2015 by SUMO polyconvert Version 0.23.0
<?xml version="1.0" encoding="UTF-8"?>

<configuration xmlns:xsi="http://www.w3.org/2001/XMLSchema-instance" xsi:noNamespaceSchemaLocation="http://sumo.dlr.de/xsd/polyconvertConfiguration.xsd">

    <input>
        <net-file value="map.net.xml"/>
        <osm-files value="map.osm"/>
        <type-file value="typemap.xml"/>
    </input>

    <output>
        <output-file value="map.poly.xml"/>
    </output>

</configuration>
-->

<additional xmlns:xsi="http://www.w3.org/2001/XMLSchema-instance" xsi:noNamespaceSchemaLocation="http://sumo.dlr.de/xsd/additional_file.xsd">
    <location netOffset="-467782.99,-5542770.58" convBoundary="-724.02,-1837.70,11405.77,11319.06" origBoundary="8.539392,50.019994,8.708968,50.138312" projParameter="+proj=utm +zone=32 +ellps=WGS84 +datum=WGS84 +units=m +no_defs"/>

    <poly id="100057049" type="building" color="255,230,230" fill="1" layer="-1.00" shape="4383.59,6217.87 4383.25,6205.97 4375.09,6206.20 4375.35,6215.16 4373.44,6215.22 4373.53,6218.16 4383.59,6217.87"/>
    <poly id="100057050" type="building" color="255,230,230" fill="1" layer="-1.00" shape="4411.68,6273.92 4419.06,6273.76 4418.66,6256.57 4412.54,6256.71 4412.68,6262.99 4411.43,6263.02 4411.68,6273.92"/>
    <poly id="100057051" type="building" color="255,230,230" fill="1" layer="-1.00" shape="4427.37,6336.92 4426.86,6346.21 4435.19,6346.51 4436.18,6337.54 4427.37,6336.92"/>
    <poly id="100057052" type="building" color="255,230,230" fill="1" layer="-1.00" shape="4342.82,6327.86 4342.15,6316.10 4353.26,6315.46 4353.94,6327.22 4342.82,6327.86"/>
    <poly id="100057054" type="building" color="255,230,230" fill="1" layer="-1.00" shape="4430.75,6286.58 4430.79,6278.24 4440.85,6278.28 4440.81,6286.63 4430.75,6286.58"/>
    <poly id="100057056" type="building" color="255,230,230" fill="1" layer="-1.00" shape="4344.09,6336.86 4344.56,6344.60 4355.11,6343.97 4354.30,6330.54 4345.69,6331.07 4346.04,6336.74 4344.09,6336.86"/>
    <poly id="100057057" type="building" color="255,230,230" fill="1" layer="-1.00" shape="4338.46,6284.26 4350.00,6283.76 4349.02,6261.26 4337.48,6261.75 4338.46,6284.26"/>
    <poly id="100057059" type="building" color="255,230,230" fill="1" layer="-1.00" shape="4444.97,6070.03 4458.50,6071.67 4460.01,6059.24 4446.48,6057.60 4444.97,6070.03"/>
    <poly id="100057060" type="building" color="255,230,230" fill="1" layer="-1.00" shape="4427.18,6115.77 4427.47,6123.64 4438.84,6123.21 4438.55,6115.35 4427.18,6115.77"/>
    <poly id="100057062" type="building" color="255,230,230" fill="1" layer="-1.00" shape="4347.90,6383.30 4348.40,6392.81 4358.65,6392.28 4358.15,6382.77 4347.90,6383.30"/>
    <poly id="100057065" type="building" color="255,230,230" fill="1" layer="-1.00" shape="4321.42,6065.04 4321.94,6077.39 4332.30,6077.69 4333.67,6066.54 4321.42,6065.04"/>
    <poly id="100057067" type="building" color="255,230,230" fill="1" layer="-1.00" shape="4356.61,6245.75 4356.31,6237.58 4353.52,6237.68 4353.32,6232.17 4349.33,6232.31 4349.19,6228.61 4357.55,6228.30 4357.34,6222.42 4366.88,6222.08 4367.09,6227.82 4363.11,6227.96 4363.75,6245.49 4356.61,6245.75"/>
    <poly id="100057070" type="building" color="255,230,230" fill="1" layer="-1.00" shape="4436.73,6193.17 4445.80,6193.13 4445.76,6184.38 4436.69,6184.42 4436.73,6193.17"/>
    <poly id="100057072" type="building" color="255,230,230" fill="1" layer="-1.00" shape="4351.29,6207.32 4351.34,6216.12 4357.39,6216.09 4357.40,6218.87 4362.73,6218.84 4362.67,6207.26 4351.29,6207.32"/>
    <poly id="100057073" type="building" color="255,230,230" fill="1" layer="-1.00" shape="4433.58,6244.83 4443.47,6245.16 4443.77,6236.38 4433.89,6236.04 4433.58,6244.83"/>
    <poly id="100057076" type="building" color="255,230,230" fill="1" layer="-1.00" shape="4434.06,6263.80 4434.03,6256.96 4442.73,6256.91 4442.77,6263.76 4434.06,6263.80"/>
    <poly id="100057078" type="building" color="255,230,230" fill="1" layer="-1.00" shape="4345.35,6068.20 4353.13,6069.10 4354.98,6053.29 4347.20,6052.39 4345.35,6068.20"/>
    <poly id="100057083" type="building" color="255,230,230" fill="1" layer="-1.00" shape="4396.08,6376.93 4396.13,6369.35 4405.61,6369.40 4405.56,6376.98 4396.08,6376.93"/>
    <poly id="100057084" type="building" color="255,230,230" fill="1" layer="-1.00" shape="4322.42,6093.89 4335.15,6093.11 4334.79,6087.06 4332.45,6087.21 4332.03,6080.35 4321.62,6081.00 4322.42,6093.89"/>
    <poly id="100057087" type="building" color="255,230,230" fill="1" layer="-1.00" shape="4409.16,6169.85 4414.32,6169.60 4413.98,6162.36 4408.82,6162.61 4409.16,6169.85"/>
    <poly id="100057089" type="building" color="255,230,230" fill="1" layer="-1.00" shape="4430.27,6176.64 4436.31,6176.61 4436.26,6166.81 4430.22,6166.85 4430.27,6176.64"/>
    <poly id="100057091" type="building" color="255,230,230" fill="1" layer="-1.00" shape="4452.73,6095.45 4457.26,6095.83 4457.94,6087.87 4453.42,6087.48 4452.73,6095.45"/>
    <poly id="100057096" type="building" color="255,230,230" fill="1" layer="-1.00" shape="4418.46,6286.06 4410.48,6286.20 4410.34,6278.48 4418.32,6278.34 4418.46,6286.06"/>
    <poly id="100057097" type="building" color="255,230,230" fill="1" layer="-1.00" shape="4356.32,6135.71 4356.52,6142.70 4356.63,6146.74 4367.03,6146.45 4366.72,6135.41 4356.32,6135.71"/>
    <poly id="100057098" type="building" color="255,230,230" fill="1" layer="-1.00" shape="4410.05,6383.09 4418.47,6383.05 4418.52,6392.66 4410.10,6392.71 4410.05,6383.09"/>
    <poly id="100057099" type="building" color="255,230,230" fill="1" layer="-1.00" shape="4424.79,6353.67 4434.91,6354.04 4435.19,6346.51 4426.86,6346.21 4425.07,6346.14 4424.79,6353.67"/>
    <poly id="100057100" type="building" color="255,230,230" fill="1" layer="-1.00" shape="4375.91,6295.96 4384.21,6296.09 4384.06,6305.54 4375.77,6305.41 4375.91,6295.96"/>
    <poly id="100057102" type="building" color="255,230,230" fill="1" layer="-1.00" shape="4416.56,6161.43 4428.07,6161.10 4427.70,6148.88 4416.19,6149.23 4416.56,6161.43"/>
    <poly id="100057104" type="building" color="255,230,230" fill="1" layer="-1.00" shape="4335.98,6254.89 4335.54,6247.68 4346.89,6246.99 4347.34,6254.20 4335.98,6254.89"/>
    <poly id="100057105" type="building" color="255,230,230" fill="1" layer="-1.00" shape="4368.69,6109.08 4381.02,6109.02 4380.96,6097.55 4368.63,6097.62 4368.69,6109.08"/>
    <poly id="100057107" type="building" color="255,230,230" fill="1" layer="-1.00" shape="4426.20,6275.45 4426.15,6272.52 4433.02,6272.39 4433.08,6275.32 4426.20,6275.45"/>
    <poly id="100057109" type="building" color="255,230,230" fill="1" layer="-1.00" shape="4392.65,6245.12 4392.52,6237.48 4406.74,6237.25 4406.87,6244.89 4392.65,6245.12"/>
    <poly id="100057111" type="building" color="255,230,230" fill="1" layer="-1.00" shape="4348.24,6196.33 4347.98,6185.02 4356.86,6184.82 4356.92,6187.46 4357.12,6196.11 4348.24,6196.33"/>
    <poly id="100057113" type="building" color="255,230,230" fill="1" layer="-1.00" shape="4417.89,6072.80 4459.51,6077.04 4459.06,6081.41 4455.10,6081.00 4454.82,6083.71 4424.15,6080.58 4424.46,6077.50 4417.48,6076.78 4417.89,6072.80"/>
    <poly id="100057114" type="building" color="255,230,230" fill="1" layer="-1.00" shape="4421.46,6383.84 4422.98,6383.86 4423.03,6380.93 4429.21,6381.01 4429.18,6383.78 4430.76,6383.79 4430.64,6392.67 4421.35,6392.54 4421.46,6383.84"/>
    <poly id="100057116" type="building" color="255,230,230" fill="1" layer="-1.00" shape="4283.07,6385.35 4282.87,6367.39 4305.72,6367.13 4305.68,6363.74 4310.23,6363.69 4310.27,6367.08 4332.22,6366.84 4332.42,6384.81 4283.07,6385.35"/>
    <poly id="100057117" type="building" color="255,230,230" fill="1" layer="-1.00" shape="4360.45,6287.62 4360.19,6274.43 4375.16,6274.14 4385.22,6273.94 4385.49,6287.12 4360.45,6287.62"/>
    <poly id="100057118" type="building" color="255,230,230" fill="1" layer="-1.00" shape="4435.33,6232.90 4435.36,6226.95 4445.71,6226.98 4445.68,6232.94 4435.33,6232.90"/>
    <poly id="100057119" type="building" color="255,230,230" fill="1" layer="-1.00" shape="4437.04,6217.29 4446.79,6217.38 4448.32,6205.12 4438.81,6203.87 4437.04,6217.29"/>
    <poly id="100057122" type="building" color="255,230,230" fill="1" layer="-1.00" shape="4370.59,6134.68 4370.86,6144.00 4381.38,6143.71 4381.11,6134.38 4370.59,6134.68"/>
    <poly id="100057123" type="building" color="255,230,230" fill="1" layer="-1.00" shape="4374.22,6195.87 4374.05,6188.71 4383.34,6188.48 4383.51,6195.65 4374.22,6195.87"/>
    <poly id="100057126" type="building" color="255,230,230" fill="1" layer="-1.00" shape="4414.53,6244.39 4427.68,6243.83 4427.48,6239.10 4419.26,6239.45 4418.78,6228.27 4413.85,6228.47 4414.53,6244.39"/>
    <poly id="100057129" type="building" color="255,230,230" fill="1" layer="-1.00" shape="4341.29,6310.61 4352.39,6310.03 4351.91,6300.75 4350.71,6300.81 4350.48,6296.15 4340.56,6296.67 4341.29,6310.61"/>
    <poly id="100057130" type="building" color="255,230,230" fill="1" layer="-1.00" shape="4352.23,6264.15 4351.99,6259.33 4356.20,6259.12 4355.99,6254.97 4350.93,6255.22 4350.70,6250.76 4368.47,6249.89 4368.73,6255.12 4365.48,6255.28 4365.88,6263.47 4352.23,6264.15"/>
    <poly id="100057132" type="building" color="255,230,230" fill="1" layer="-1.00" shape="4434.04,6272.63 4434.01,6266.65 4442.90,6266.60 4442.93,6272.59 4434.04,6272.63"/>
    <poly id="100057133" type="building" color="255,230,230" fill="1" layer="-1.00" shape="4415.67,6109.27 4440.84,6110.48 4441.68,6102.30 4426.53,6100.75 4427.85,6087.84 4417.97,6086.83 4415.67,6109.27"/>
    <poly id="100057134" type="building" color="255,230,230" fill="1" layer="-1.00" shape="4356.52,6142.70 4346.52,6142.99 4346.32,6135.99 4356.32,6135.71 4356.52,6142.70"/>
    <poly id="100057135" type="building" color="255,230,230" fill="1" layer="-1.00" shape="4337.29,6257.27 4348.83,6256.77 4349.02,6261.26 4337.48,6261.75 4337.29,6257.27"/>
    <poly id="100057136" type="building" color="255,230,230" fill="1" layer="-1.00" shape="4397.05,6383.18 4405.60,6383.22 4405.55,6392.78 4397.00,6392.73 4397.05,6383.18"/>
    <poly id="100057137" type="building" color="255,230,230" fill="1" layer="-1.00" shape="4439.66,6166.52 4439.66,6175.10 4449.95,6175.09 4449.94,6166.52 4439.66,6166.52"/>
    <poly id="100057138" type="building" color="255,230,230" fill="1" layer="-1.00" shape="4433.97,6253.63 4433.86,6247.15 4443.24,6247.00 4443.35,6253.48 4433.97,6253.63"/>
    <poly id="100057139" type="building" color="255,230,230" fill="1" layer="-1.00" shape="4401.18,6149.63 4391.30,6149.97 4390.81,6135.68 4404.89,6135.20 4405.38,6149.48 4401.18,6149.63"/>
    <poly id="100057140" type="building" color="255,230,230" fill="1" layer="-1.00" shape="4418.59,6212.35 4418.42,6204.44 4426.46,6204.28 4426.63,6212.17 4425.89,6212.19 4425.94,6214.77 4421.61,6214.87 4421.56,6212.29 4418.59,6212.35"/>
    <poly id="100057141" type="building" color="255,230,230" fill="1" layer="-1.00" shape="4434.09,6224.74 4434.11,6217.26 4437.04,6217.29 4446.79,6217.38 4445.80,6224.78 4434.09,6224.74"/>
    <poly id="100057142" type="building" color="255,230,230" fill="1" layer="-1.00" shape="4395.50,6295.95 4395.44,6303.58 4404.46,6303.64 4404.51,6296.01 4395.50,6295.95"/>
    <poly id="100057143" type="building" color="255,230,230" fill="1" layer="-1.00" shape="4436.83,6210.64 4436.74,6205.09 4428.81,6205.22 4428.90,6210.77 4436.83,6210.64"/>
    <poly id="100057144" type="building" color="255,230,230" fill="1" layer="-1.00" shape="4396.21,6337.69 4396.33,6345.66 4405.81,6345.51 4405.69,6337.54 4396.21,6337.69"/>
    <poly id="100057145" type="building" color="255,230,230" fill="1" layer="-1.00" shape="4364.46,6297.10 4371.67,6296.99 4371.81,6305.96 4364.61,6306.07 4364.46,6297.10"/>
    <poly id="100057146" type="building" color="255,230,230" fill="1" layer="-1.00" shape="4376.37,6369.70 4376.57,6378.04 4386.82,6377.80 4386.62,6369.46 4376.37,6369.70"/>
    <poly id="100057148" type="building" color="255,230,230" fill="1" layer="-1.00" shape="4344.14,6049.58 4356.90,6051.32 4359.00,6036.12 4346.24,6034.37 4344.14,6049.58"/>
    <poly id="100057150" type="building" color="255,230,230" fill="1" layer="-1.00" shape="4322.33,6098.46 4331.16,6098.04 4331.70,6109.13 4322.87,6109.55 4322.33,6098.46"/>
    <poly id="100175379" type="building" color="255,230,230" fill="1" layer="-1.00" shape="4051.89,6006.97 4055.90,6007.06 4055.98,6003.28 4062.35,6003.41 4062.47,5998.13 4052.10,5997.91 4051.89,6006.97"/>
    <poly id="100175385" type="building" color="255,230,230" fill="1" layer="-1.00" shape="4258.28,6115.33 4253.04,6115.50 4252.94,6112.71 4255.02,6112.64 4254.83,6106.37 4257.99,6106.27 4258.28,6115.33"/>
    <poly id="100175396" type="building" color="255,230,230" fill="1" layer="-1.00" shape="4211.22,6226.86 4220.24,6226.73 4220.39,6236.32 4211.37,6236.46 4211.22,6226.86"/>
    <poly id="100175400" type="building" color="255,230,230" fill="1" layer="-1.00" shape="4174.21,5994.68 4173.88,5986.92 4182.16,5986.58 4182.49,5994.33 4174.21,5994.68"/>
    <poly id="100175409" type="building" color="255,230,230" fill="1" layer="-1.00" shape="4289.34,5986.26 4289.17,5975.64 4304.52,5975.40 4304.68,5986.03 4289.34,5986.26"/>
    <poly id="100175439" type="building" color="255,230,230" fill="1" layer="-1.00" shape="4244.19,6108.31 4244.17,6104.51 4237.55,6104.54 4237.59,6113.11 4244.22,6113.08 4244.19,6108.31"/>
    <poly id="100175445" type="building" color="255,230,230" fill="1" layer="-1.00" shape="4139.36,6313.80 4139.28,6309.39 4146.25,6309.25 4146.28,6310.62 4146.33,6313.43 4139.36,6313.80"/>
    <poly id="100175448" type="building" color="255,230,230" fill="1" layer="-1.00" shape="4204.65,6188.14 4211.59,6187.88 4211.53,6186.30 4214.57,6186.18 4214.63,6187.77 4229.80,6187.22 4228.83,6160.79 4214.31,6161.32 4214.37,6163.10 4212.02,6163.19 4211.95,6161.40 4203.68,6161.70 4204.65,6188.14"/>
    <poly id="100175457" type="building" color="255,230,230" fill="1" layer="-1.00" shape="4212.79,6272.40 4212.67,6263.87 4223.00,6263.72 4223.13,6272.25 4212.79,6272.40"/>
    <poly id="100175464" type="building" color="255,230,230" fill="1" layer="-1.00" shape="4152.33,6140.29 4152.67,6149.25 4166.18,6148.72 4165.82,6139.76 4152.33,6140.29"/>
    <poly id="100175467" type="building" color="255,230,230" fill="1" layer="-1.00" shape="4162.40,6297.31 4162.54,6304.22 4160.65,6306.26 4170.63,6306.05 4170.44,6296.86 4162.40,6297.31"/>
    <poly id="100175473" type="building" color="255,230,230" fill="1" layer="-1.00" shape="4144.28,6210.68 4144.32,6218.76 4154.26,6218.71 4154.22,6210.63 4144.28,6210.68"/>
    <poly id="100175480" type="building" color="255,230,230" fill="1" layer="-1.00" shape="4158.88,6003.83 4162.55,6003.81 4162.52,5996.77 4158.84,5996.79 4158.88,6003.83"/>
    <poly id="100175484" type="building" color="255,230,230" fill="1" layer="-1.00" shape="4293.34,6197.41 4301.59,6197.37 4301.55,6188.65 4293.29,6188.70 4293.30,6190.36 4291.14,6190.38 4291.17,6195.77 4293.33,6195.76 4293.34,6197.41"/>
    <poly id="100175488" type="building" color="255,230,230" fill="1" layer="-1.00" shape="4284.16,6108.15 4284.07,6102.53 4298.11,6102.31 4298.24,6110.65 4293.04,6110.73 4293.00,6108.01 4284.16,6108.15"/>
    <poly id="100175493" type="building" color="255,230,230" fill="1" layer="-1.00" shape="4125.49,6021.42 4124.99,6010.68 4124.90,6008.82 4148.46,6007.74 4149.04,6020.34 4125.49,6021.42"/>
    <poly id="100175500" type="building" color="255,230,230" fill="1" layer="-1.00" shape="4211.95,6019.69 4211.90,6011.99 4215.02,6011.97 4221.10,6011.94 4221.16,6019.62 4211.95,6019.69"/>
    <poly id="100175513" type="building" color="255,230,230" fill="1" layer="-1.00" shape="4271.47,6019.32 4271.44,6010.19 4280.16,6010.15 4280.19,6019.29 4271.47,6019.32"/>
    <poly id="100175519" type="building" color="255,230,230" fill="1" layer="-1.00" shape="4141.31,6129.85 4126.51,6129.67 4126.58,6123.74 4119.21,6123.65 4119.42,6105.48 4131.86,6105.42 4134.67,6105.41 4141.69,6105.38 4142.71,6105.37 4142.52,6118.01 4141.49,6118.02 4141.31,6129.85"/>
    <poly id="100175526" type="building" color="255,230,230" fill="1" layer="-1.00" shape="4164.36,6286.98 4164.32,6278.35 4161.33,6276.87 4173.61,6276.81 4173.66,6286.94 4164.36,6286.98"/>
    <poly id="100175530" type="building" color="255,230,230" fill="1" layer="-1.00" shape="4179.70,6284.38 4179.51,6271.98 4188.83,6271.85 4188.88,6275.10 4194.97,6275.00 4194.92,6271.76 4192.53,6271.79 4192.46,6267.03 4202.53,6266.87 4202.73,6280.10 4198.88,6280.17 4198.95,6284.08 4179.70,6284.38"/>
    <poly id="100175535" type="building" color="255,230,230" fill="1" layer="-1.00" shape="4212.66,6257.05 4212.34,6247.96 4222.15,6247.61 4222.48,6256.71 4212.66,6257.05"/>
    <poly id="100175538" type="building" color="255,230,230" fill="1" layer="-1.00" shape="3998.98,5988.69 4009.70,5988.72 4009.76,5974.89 3999.03,5974.86 3998.98,5988.69"/>
    <poly id="100175541" type="building" color="255,230,230" fill="1" layer="-1.00" shape="4155.82,6071.17 4164.90,6071.12 4164.77,6047.74 4155.70,6047.78 4155.82,6071.17"/>
    <poly id="100175546" type="building" color="255,230,230" fill="1" layer="-1.00" shape="4168.69,6315.72 4168.52,6310.52 4193.01,6309.74 4193.18,6314.93 4168.69,6315.72"/>
    <poly id="100175548" type="building" color="255,230,230" fill="1" layer="-1.00" shape="4169.24,6142.94 4169.58,6153.00 4187.26,6152.41 4187.82,6169.69 4198.33,6169.35 4197.54,6145.62 4193.98,6142.12 4169.24,6142.94"/>
    <poly id="100175553" type="building" color="255,230,230" fill="1" layer="-1.00" shape="4225.78,6121.39 4231.78,6121.18 4231.54,6113.92 4225.54,6114.12 4225.68,6118.37 4225.78,6121.39"/>
    <poly id="100175556" type="building" color="255,230,230" fill="1" layer="-1.00" shape="4107.30,5997.36 4124.89,5997.19 4124.99,6006.92 4111.43,6007.04 4107.30,6007.09 4107.26,6002.07 4107.30,5997.36"/>
    <poly id="100175564" type="building" color="255,230,230" fill="1" layer="-1.00" shape="4235.38,6349.43 4231.18,6349.50 4231.14,6347.01 4228.88,6347.04 4228.80,6341.65 4231.06,6341.62 4230.99,6336.77 4235.19,6336.70 4235.38,6349.43"/>
    <poly id="100175569" type="building" color="255,230,230" fill="1" layer="-1.00" shape="4196.47,6019.87 4206.60,6019.82 4206.53,6006.36 4196.40,6006.41 4196.47,6019.87"/>
    <poly id="100175572" type="building" color="255,230,230" fill="1" layer="-1.00" shape="4156.86,6335.56 4162.23,6335.26 4161.28,6318.71 4155.92,6319.02 4156.86,6335.56"/>
    <poly id="100175575" type="building" color="255,230,230" fill="1" layer="-1.00" shape="4212.86,6286.95 4212.87,6278.09 4222.41,6278.11 4222.41,6279.47 4227.54,6279.48 4230.80,6279.49 4230.79,6286.97 4212.86,6286.95"/>
    <poly id="100175579" type="building" color="255,230,230" fill="1" layer="-1.00" shape="4034.77,5996.15 4034.98,5989.08 4041.98,5989.29 4041.97,5996.25 4034.77,5996.15"/>
    <poly id="100175581" type="building" color="255,230,230" fill="1" layer="-1.00" shape="4195.65,6373.07 4205.39,6372.90 4205.22,6363.91 4198.94,6364.03 4198.90,6361.69 4195.44,6361.75 4195.65,6373.07"/>
    <poly id="100175592" type="building" color="255,230,230" fill="1" layer="-1.00" shape="4213.42,6297.12 4213.79,6306.42 4227.83,6305.88 4227.71,6302.87 4227.47,6296.58 4213.42,6297.12"/>
    <poly id="100175599" type="building" color="255,230,230" fill="1" layer="-1.00" shape="4116.01,6211.89 4116.71,6223.89 4126.57,6223.37 4126.10,6219.34 4134.09,6219.11 4136.85,6219.03 4136.81,6217.89 4136.63,6211.29 4116.01,6211.89"/>
    <poly id="100175601" type="building" color="255,230,230" fill="1" layer="-1.00" shape="4290.13,6207.55 4290.50,6216.80 4294.49,6216.64 4308.75,6216.07 4308.38,6206.82 4290.13,6207.55"/>
    <poly id="100175607" type="building" color="255,230,230" fill="1" layer="-1.00" shape="4240.35,6149.48 4244.58,6149.46 4244.52,6138.19 4240.29,6138.22 4240.35,6149.48"/>
    <poly id="100175609" type="building" color="255,230,230" fill="1" layer="-1.00" shape="4280.94,6069.11 4280.89,6058.83 4292.18,6058.77 4292.23,6069.05 4280.94,6069.11"/>
    <poly id="100175615" type="building" color="255,230,230" fill="1" layer="-1.00" shape="4212.66,6061.50 4229.69,6061.12 4229.50,6052.75 4223.91,6052.86 4223.71,6044.18 4233.04,6043.97 4232.89,6037.28 4232.78,6032.27 4212.01,6032.73 4212.66,6061.50"/>
    <poly id="100175620" type="building" color="255,230,230" fill="1" layer="-1.00" shape="4215.70,6359.19 4225.85,6358.88 4226.22,6371.12 4216.07,6371.43 4215.70,6359.19"/>
    <poly id="100175633" type="building" color="255,230,230" fill="1" layer="-1.00" shape="4257.57,6197.81 4257.43,6188.81 4270.16,6188.61 4270.30,6197.62 4257.57,6197.81"/>
    <poly id="100175639" type="building" color="255,230,230" fill="1" layer="-1.00" shape="4298.00,6183.20 4301.31,6183.14 4301.16,6174.62 4297.85,6174.67 4298.00,6183.20"/>
    <poly id="100175643" type="building" color="255,230,230" fill="1" layer="-1.00" shape="4214.75,6326.25 4226.84,6325.91 4227.15,6336.39 4215.05,6336.73 4214.75,6326.25"/>
    <poly id="100175648" type="building" color="255,230,230" fill="1" layer="-1.00" shape="4307.51,6197.42 4307.53,6188.37 4312.47,6188.37 4312.48,6182.29 4320.49,6182.31 4321.66,6197.44 4307.51,6197.42"/>
    <poly id="100175652" type="building" color="255,230,230" fill="1" layer="-1.00" shape="4121.21,6063.01 4121.15,6050.91 4140.03,6050.81 4140.06,6057.40 4140.09,6062.91 4130.57,6062.96 4121.21,6063.01"/>
    <poly id="100175656" type="building" color="255,230,230" fill="1" layer="-1.00" shape="4119.53,6279.30 4120.02,6288.46 4132.79,6287.78 4132.30,6278.62 4119.53,6279.30"/>
    <poly id="100175659" type="building" color="255,230,230" fill="1" layer="-1.00" shape="4213.97,6323.72 4213.85,6315.47 4224.06,6315.31 4224.18,6323.56 4213.97,6323.72"/>
    <poly id="100175661" type="building" color="255,230,230" fill="1" layer="-1.00" shape="4011.47,6000.71 4011.71,5995.79 4023.13,5996.35 4022.89,6001.26 4011.47,6000.71"/>
    <poly id="100175662" type="building" color="255,230,230" fill="1" layer="-1.00" shape="4310.53,6176.00 4310.02,6168.32 4319.84,6167.68 4320.35,6175.36 4310.53,6176.00"/>
    <poly id="100175668" type="building" color="255,230,230" fill="1" layer="-1.00" shape="4280.35,6243.42 4281.09,6253.07 4292.51,6252.19 4291.46,6238.67 4280.05,6239.56 4280.35,6243.42"/>
    <poly id="100175670" type="building" color="255,230,230" fill="1" layer="-1.00" shape="4301.31,6183.14 4308.55,6183.02 4308.43,6176.14 4303.94,6176.22 4303.83,6169.74 4301.09,6169.79 4301.16,6174.62 4301.31,6183.14"/>
    <poly id="100175677" type="building" color="255,230,230" fill="1" layer="-1.00" shape="4220.56,6208.15 4220.79,6215.73 4221.05,6224.21 4225.49,6224.08 4225.28,6217.36 4235.64,6217.05 4235.36,6207.71 4220.56,6208.15"/>
    <poly id="100175687" type="building" color="255,230,230" fill="1" layer="-1.00" shape="4243.68,6183.50 4247.28,6183.30 4246.85,6175.17 4243.25,6175.37 4243.68,6183.50"/>
    <poly id="100175694" type="building" color="255,230,230" fill="1" layer="-1.00" shape="4210.85,6200.30 4221.65,6199.89 4221.31,6191.09 4210.51,6191.50 4210.85,6200.30"/>
    <poly id="100175696" type="building" color="255,230,230" fill="1" layer="-1.00" shape="4213.01,6128.80 4212.67,6118.80 4225.68,6118.37 4225.78,6121.39 4226.02,6128.36 4213.01,6128.80"/>
    <poly id="100175704" type="building" color="255,230,230" fill="1" layer="-1.00" shape="4250.93,6127.74 4259.47,6127.57 4259.30,6119.25 4250.76,6119.41 4250.93,6127.74"/>
    <poly id="100175712" type="building" color="255,230,230" fill="1" layer="-1.00" shape="4042.23,6004.43 4045.55,6004.38 4045.46,5997.51 4041.97,5996.25 4042.23,6004.43"/>
    <poly id="100175717" type="building" color="255,230,230" fill="1" layer="-1.00" shape="4027.44,6008.62 4032.55,6008.86 4033.00,5999.31 4027.88,5999.07 4027.44,6008.62"/>
    <poly id="100175720" type="building" color="255,230,230" fill="1" layer="-1.00" shape="4269.79,6099.52 4269.35,6087.28 4280.05,6086.91 4279.70,6077.42 4284.80,6077.24 4285.14,6086.72 4302.62,6085.96 4303.06,6091.58 4285.65,6092.20 4285.89,6098.95 4269.79,6099.52"/>
    <poly id="100175723" type="building" color="255,230,230" fill="1" layer="-1.00" shape="4247.77,6299.21 4248.01,6308.78 4255.43,6308.59 4255.54,6313.17 4260.40,6313.04 4260.04,6298.90 4247.77,6299.21"/>
    <poly id="100175734" type="building" color="255,230,230" fill="1" layer="-1.00" shape="4194.45,6327.35 4194.62,6334.96 4196.70,6334.92 4196.86,6342.43 4205.43,6342.24 4205.10,6327.12 4195.38,6327.34 4194.45,6327.35"/>
    <poly id="100175736" type="building" color="255,230,230" fill="1" layer="-1.00" shape="4042.28,5986.02 4051.08,5986.11 4051.18,5976.62 4042.38,5976.53 4042.28,5986.02"/>
    <poly id="100175740" type="building" color="255,230,230" fill="1" layer="-1.00" shape="4175.76,6060.33 4171.85,6060.54 4171.30,6050.14 4175.21,6049.93 4175.76,6060.33"/>
    <poly id="100175746" type="building" color="255,230,230" fill="1" layer="-1.00" shape="4226.10,6018.90 4226.14,6010.68 4235.06,6010.73 4235.01,6018.95 4226.10,6018.90"/>
    <poly id="100175749" type="building" color="255,230,230" fill="1" layer="-1.00" shape="4148.87,6344.26 4149.41,6354.87 4136.57,6355.52 4136.73,6358.48 4154.88,6357.42 4154.19,6343.99 4148.87,6344.26"/>
    <poly id="100175753" type="building" color="255,230,230" fill="1" layer="-1.00" shape="4243.60,6059.50 4237.15,6059.02 4238.78,6037.15 4245.30,6037.01 4243.60,6059.50"/>
    <poly id="100175755" type="building" color="255,230,230" fill="1" layer="-1.00" shape="4270.51,5990.32 4270.70,6000.47 4281.60,6000.26 4281.40,5990.11 4270.51,5990.32"/>
    <poly id="100175756" type="building" color="255,230,230" fill="1" layer="-1.00" shape="4169.24,6182.34 4151.37,6182.96 4150.76,6165.69 4155.96,6165.51 4155.67,6156.92 4168.34,6156.48 4169.24,6182.34"/>
    <poly id="100175757" type="building" color="255,230,230" fill="1" layer="-1.00" shape="4300.52,6232.51 4300.56,6226.38 4309.78,6226.43 4309.74,6232.56 4300.52,6232.51"/>
    <poly id="100175761" type="building" color="255,230,230" fill="1" layer="-1.00" shape="4278.67,6197.97 4287.52,6197.70 4287.26,6189.27 4278.42,6189.54 4278.67,6197.97"/>
    <poly id="100175762" type="building" color="255,230,230" fill="1" layer="-1.00" shape="4167.71,6238.72 4167.86,6248.33 4142.05,6248.72 4141.94,6241.18 4141.84,6235.06 4141.79,6231.30 4167.59,6230.91 4167.71,6238.72"/>
    <poly id="100175767" type="building" color="255,230,230" fill="1" layer="-1.00" shape="4273.39,6127.64 4273.20,6117.16 4288.15,6116.87 4288.35,6127.36 4273.39,6127.64"/>
    <poly id="100175769" type="building" color="255,230,230" fill="1" layer="-1.00" shape="4178.18,6064.88 4182.88,6064.73 4182.64,6057.46 4177.95,6057.61 4178.18,6064.88"/>
    <poly id="100175772" type="building" color="255,230,230" fill="1" layer="-1.00" shape="4176.68,6192.28 4176.18,6182.24 4195.81,6181.26 4196.32,6191.29 4176.68,6192.28"/>
    <poly id="100175775" type="building" color="255,230,230" fill="1" layer="-1.00" shape="4136.01,6344.94 4148.87,6344.26 4154.19,6343.99 4153.82,6336.81 4135.62,6337.73 4136.01,6344.94"/>
    <poly id="100175777" type="building" color="255,230,230" fill="1" layer="-1.00" shape="4139.80,6288.01 4139.41,6276.61 4150.52,6276.23 4150.91,6287.63 4139.80,6288.01"/>
    <poly id="100175781" type="building" color="255,230,230" fill="1" layer="-1.00" shape="4009.89,6004.09 4006.62,6004.17 4006.47,5998.21 4003.63,5998.29 4003.48,5992.61 4009.58,5992.46 4009.89,6004.09"/>
    <poly id="100175785" type="building" color="255,230,230" fill="1" layer="-1.00" shape="4247.50,6283.65 4247.26,6272.05 4259.83,6271.78 4260.07,6283.39 4247.50,6283.65"/>
    <poly id="100175787" type="building" color="255,230,230" fill="1" layer="-1.00" shape="4229.40,6145.87 4236.69,6145.65 4236.46,6138.01 4229.17,6138.24 4229.40,6145.87"/>
    <poly id="100175791" type="building" color="255,230,230" fill="1" layer="-1.00" shape="4266.33,6249.35 4252.05,6250.45 4250.98,6236.65 4265.25,6235.55 4265.95,6244.53 4266.33,6249.35"/>
    <poly id="100175793" type="building" color="255,230,230" fill="1" layer="-1.00" shape="4237.57,6301.78 4233.68,6301.73 4233.75,6296.06 4237.64,6296.11 4237.57,6301.78"/>
    <poly id="100175796" type="building" color="255,230,230" fill="1" layer="-1.00" shape="4308.04,6159.02 4308.43,6166.66 4319.32,6166.11 4318.94,6158.47 4308.04,6159.02"/>
    <poly id="100175799" type="building" color="255,230,230" fill="1" layer="-1.00" shape="4212.91,6138.50 4213.13,6146.74 4222.17,6146.51 4221.95,6138.27 4212.91,6138.50"/>
    <poly id="100175800" type="building" color="255,230,230" fill="1" layer="-1.00" shape="4196.40,6356.78 4196.29,6353.41 4194.67,6353.47 4194.47,6347.68 4204.19,6347.36 4204.50,6356.50 4196.40,6356.78"/>
    <poly id="100175805" type="building" color="255,230,230" fill="1" layer="-1.00" shape="4139.89,6148.73 4139.72,6139.28 4120.90,6139.61 4121.07,6149.06 4127.85,6148.95 4139.89,6148.73"/>
    <poly id="100175810" type="building" color="255,230,230" fill="1" layer="-1.00" shape="4185.87,6020.12 4194.39,6020.16 4194.45,6003.77 4185.94,6003.75 4185.87,6020.12"/>
    <poly id="100175813" type="building" color="255,230,230" fill="1" layer="-1.00" shape="4248.70,6197.96 4257.57,6197.81 4257.43,6188.81 4257.41,6187.98 4248.55,6188.12 4248.70,6197.96"/>
    <poly id="100175816" type="building" color="255,230,230" fill="1" layer="-1.00" shape="4233.77,6327.32 4233.87,6319.14 4245.45,6319.28 4245.36,6327.44 4233.77,6327.32"/>
    <poly id="100175819" type="building" color="255,230,230" fill="1" layer="-1.00" shape="4267.63,5986.73 4267.58,5976.78 4279.54,5976.72 4279.59,5986.67 4267.63,5986.73"/>
    <poly id="100175827" type="building" color="255,230,230" fill="1" layer="-1.00" shape="4187.57,6129.75 4187.26,6120.20 4198.92,6119.84 4199.22,6129.39 4187.57,6129.75"/>