%description:
Test AddressManagement Module

%file: test.ned

import inet.networklayer.ipv6mev.AddressManagement;

network Test
{
    parameters:
        
    submodules:
        
    connections:
        
}

%inifile: omnetpp.ini

[General]
network = Test
cmdenv-express-mode = false
tkenv-plugin-path = ../../../etc/plugins
ned-path = .;../../../../src;../../lib
sim-time-limit = 1s


