[General]
# ============================ simulation configuration ============================
network = frankfurt_urban_n_nodes
# Provides only minimal status updates on the console.
cmdenv-express-mode = true
# Allows the simulation to ask missing parameter values interactively
cmdenv-interactive = false
# Limits how long the simulation should run (in simulation time)
sim-time-limit = 440s # 450s per car for route
# Turns on the recording of the simulator events into an event log file. .elog file
#record-eventlog = false
# If the runtime detects any error, it will generate a breakpoint so you will be able to 
# check the location and the context of the problem in your debugger.
#debug-on-errors = false
# cmdenv-runs-to-execute specifies which simulation runs should be executed. 
#cmdenv-runs-to-execute 
# Specifies the search path for Tkenv plugins. Tkenv plugins are .tcl
#files that get evaluated on startup
tkenv-plugin-path = ../../../etc/plugins
# Recording results into the scalar file
# Recording results into the scalar file
**.tcpApp[*].**.scalar-recording = true
**.udpApp[*].**.scalar-recording = true
**.pingApp[*].**.scalar-recording = true
**.CN*[*].**.scalar-recording = true
**.MA[*].**.scalar-recording = true
**.CA.**.scalar-recording = true
**.DA*.**.scalar-recording = true
**.scalar-recording = false
# Recording output vector results
#**.CN*.**.vector-recording = true
**.tcpApp[*].**.vector-recording = true
**.udpApp[*].**.vector-recording = true
**.pingApp[*].**.vector-recording = true
**.MA[*].mobility.**.vector-recording = true
**.MA[*].**.mgmt.**.vector-recording = true
**.MA[*].**.mac.**.vector-recording = true
**.MA[*].**.agent.**.vector-recording = true
**.udp.**.vector-recording = true
**.tcp.**.vector-recording = true
**.vector-recording = false
# Selects the kth set of automatic random number seeds for the simulation.
# Meaningful values include ${repetition} which is the repeat loop counter (see repeat= key), and ${runnumber}.
repeat = 24
seed-set = ${runnumber}
# printing debug information
**.debug = true
# User Interface: either use TKenv for Oment GUI or Cmdenv for console output
# user-interface = Cmdenv
# Path of run files, used in bash
ned-path = ../../simulation;../../src
load-libs = ../../src/INET

# --------------------------- Animation configuration ---------------------------------
#**.viewTranslation = "1100 800"
#**.updateCanvasInterval = 10ms
#**.viewAngle = "isometric"
#**.leaveMovementTrail = true
#**.leaveIntersectionTrail = true
#**.leaveCommunicationTrail = true
#**.leaveCommunicationHeat = true
#**.displayCommunication = true
#**.displayCommunicationRange = true
#**.displayInterferenceRange = true
#**.drawCommunication2D = true

# ============================ Scenario and application configuration =================
# number of mobile nodes and data agents
*.total_mn = 1
*.total_da = 1
# number of correspondent node
*.total_cn = 1 
# disable id layer
#**.MA[*].idLayer.isIdLayerEnabled = false

# --------------------------- PING configuration -------------------------------------
*.MA[*].numPingApps = 1
*.MA[*].pingApp[*].destAddr = "CN*[*]"
*.MA[*].pingApp[*].startTime = 15s  + uniform(-1s,1s)
*.MA[*].pingApp[*].stopTime = 430s
*.MA[*].pingApp[*].packetSize = 64B
*.MA[*].pingApp[*].sendInterval = 0.1s	
# CN does not need to have a ping application. Ping responses are handled by IPv6.

# ============================ SUMO configuration ====================================
*.manager.numVehicles = 1
*.manager.updateInterval = 0.1s
#*.manager.connectAt = 1s
*.manager.host = "localhost"
*.manager.port = 9999
*.manager.moduleType = "inet.node.ipv6mev.MobileAgent"
*.manager.moduleName = "MA"
*.manager.moduleDisplayString = ""
*.manager.autoShutdown = true
*.manager.margin = 25
*.manager.useRouteDistributions = false
*.manager.launchConfig = xmldoc("map.launchd.xml")
# --------------------------- Mobility configuration -----------------------------------
*.MA[*].mobilityType = "TraCIMobility"
**.constraintAreaMinX = 0m
**.constraintAreaMinY = 0m
**.constraintAreaMinZ = 0m
**.constraintAreaMaxX = 6231m
**.constraintAreaMaxY = 2104m
**.constraintAreaMaxZ = 50m
# --------------------------- Environment configuration --------------------------------
**.spaceMinX = 0m
**.spaceMinY = 0m
**.spaceMinZ = 0m
**.spaceMaxX = 6231m
**.spaceMaxY = 2104m
**.spaceMaxZ = 50m
# ---------------------------------------------
#**.obstacleLossType = "TracingObstacleLoss"
#**.config = xmldoc("outdoor.xml")
#**.axisLength = 100m

# ============================ ID layer configuration ==================================
**.MA[*].idLayer.controlAgent = "CA"
**.CA.idLayer.dataAgents = "DA1 DA2"
**.CA.idLayer.indexOperator = 2

# ============================ Network layer configuration =============================
**.neighbourDiscovery.minIntervalBetweenRAs = 0.03s 
**.neighbourDiscovery.maxIntervalBetweenRAs = 0.07s 
# ---------------------------------------------
**.ipv6.procDelay = truncnormal(10us,30us)
# ---------------------------------------------
**.relayUnitType = "MACRelayUnit"
**.relayUnit.processingTime = truncnormal(10us,30us)
**.relayUnit.addressTableSize = 100
**.relayUnit.agingTime = 120s
**.relayUnit.bufferSize = 1MiB
**.relayUnit.highWatermark = 512KiB
**.relayUnit.pauseUnits = 300  # pause for 300*512 bit (19200 byte) time
**.relayUnit.addressTableFile = ""
**.relayUnit.numCPUs = 1

# ============================ Link layer configuration =================================
**.mac.address = "auto"
#**.mac.EDCA = false # ETSI 302 663  
#**.mac.AIFSN0 = 9 # 
#**.mac.AIFSN1 = 6 # 
#**.mac.AIFSN2 = 3 # 
#**.mac.AIFSN3 = 2 # 
##**.mac.TXOP0 = 0s
##**.mac.TXOP1 = 0s
##**.mac.TXOP2 = 0s
##**.mac.TXOP3 = 0s
#**.mac.defaultAC = 2 # 
#**.mac.AIFSN = 2 # 
#**.mac.cwMinData = 7 # 
#**.mac.cwMaxData = 15 # 
#**.mac.slotTime = 13us
#**.mac.retryLimit = 7
# ---------------------------------------------
**.mgmt.numAuthSteps = 2
**.mgmt.beaconInterval = 0.05s + uniform(-0.005s,0.005s) # 20Hz beacon intervall from 11pDC specification for freeway; 10Hz for urban environment
#**.mgmt.frameCapacity = 5
#**.opMode = "a" # does not work! only g
#**.wlan*.bitrate = 18Mbps
#**.wlan*.mac.basicBitrate = 6Mbps
#**.wlan*.mac.controlBitrate = 6Mbps
#**.wlan*.mac.autoBitrate = 1
#**.MA*.**.bitrate = 18Mbps
# --------------------------- Mobile node configuration --------------------------------
**.MA*.numRadios = 1
**.MA*.wlan[*].agent.default_ssid = "" # should be empty, else the authentication process fails
**.MA*.wlan[*].agent.activeScan = true
**.MA*.wlan[*].agent.probeDelay = 0.1s
**.MA*.wlan[*].agent.minChannelTime = 0.1s
**.MA*.wlan[*].agent.maxChannelTime = 0.3s
#**.MA*.wlan[*].agent.associationTimeout = 1s
#**.MA*.wlan[*].agent.authenticationTimeout = 1s
**.MA*.wlan[*].agent.channelsToScan = "1 6 11"  # ${channelNumber=2..10}
# --------------------------- Infrastructure configuration ------------------------------
**.AP_1.wlan*.mgmt.ssid = "AP_1"
**.AP_2.wlan*.mgmt.ssid = "AP_2"
**.AP_3.wlan*.mgmt.ssid = "AP_3"
**.AP_4.wlan*.mgmt.ssid = "AP_4"
**.AP_5.wlan*.mgmt.ssid = "AP_5"
**.AP_6.wlan*.mgmt.ssid = "AP_6"
**.AP_7.wlan*.mgmt.ssid = "AP_7"
**.AP_8.wlan*.mgmt.ssid = "AP_8"
**.AP_9.wlan*.mgmt.ssid = "AP_9"
**.AP_1.wlan*.radio.channelNumber = 1
**.AP_2.wlan*.radio.channelNumber = 6
**.AP_3.wlan*.radio.channelNumber = 11
**.AP_4.wlan*.radio.channelNumber = 1
**.AP_5.wlan*.radio.channelNumber = 6
**.AP_6.wlan*.radio.channelNumber = 11
**.AP_7.wlan*.radio.channelNumber = 1
**.AP_8.wlan*.radio.channelNumber = 6
**.AP_9.wlan*.radio.channelNumber = 11
# ---------------------------------------------
**.eth[*].queueType = "DropTailQueue" # in routers
**.eth[*].mac.promiscuous = false
**.eth[*].mac.duplexMode = true
**.eth[*].queue.pauseQueue.frameCapacity = 50  # in routers
**.ppp[*].queueType = "DropTailQueue" # in routers
**.ppp[*].queue.frameCapacity = 10  # in routers
# ============================ Physical layer configuration =================================
#**.radio.bandName = "5 GHz"
#**.radio.bandwidth = 10 MHz
#**.radio.antennaType = "IsotropicAntenna"
#**.radio.carrierFrequency = 5.89e9 Hz # ETSI 302571 - 6.10.2  
**.radio.transmitter.power = 20mW # ETSI 302663-4.3: G5 SCH2 channelNo 178; rate=12 Mbit/s; power_limit=23dBm
**.radio.receiver.sensitivity = -83dBm # -77dBm Defined as min SNR value to distinguish signal from noise. If received signal is below this value it is interpreted as noise. Value taken from C2C  system profile v1.0.4 
**.radio.receiver.energyDetection = -88dBm # -62dBm
**.radio.receiver.snirThreshold = 0dB # defined as minimum SNR to try to interpret data. It is calculated from the sum of all received noise signals. Taken from ETSI 102687
**.radioMedium.**.maxTransmissionPower = 25mW
#**.radio.transmitter.modulation = "QAM-16"
#**.radio.receiver.modulation = "QAM-16"
**.radioMedium.pathLossType = "RicianFading" # Low packet drop: 10% - 20%
#**.radioMedium.pathLossType = "RayleighFading" # High packet drop: 30% - 50%
#**.radioMedium.pathLossType = "NakagamiFading" # Very high packet drop: 30% - 50%
#**.radioMedium.pathLossType = "FreeSpacePathLoss"
**.radioMedium.mediumLimitCache.minReceptionPower = -83dBm # ETSI  302571 6.10.2: specifies rec sensitivity -85dBm for BPSK
**.radioMedium.mediumLimitCache.minInterferencePower = -85dBm # if to high, bands overlap and causes error 'not supported'
#**.radioMedium.mediumLimitCache.maxInterferenceRange = 800m # not testes
**.radioMedium.backgroundNoise.power = -100dBm # 
**.radioMedium.propagationType = "ConstantSpeedPropagation"
#**.radioMedium.rangeFilter = "communicationRange" # Does not work. Causes error 139
#**.radioMedium.mediumLimitCache.maxCommunicationRange = 600m # ETSI102687- Table A.3
#**.radioMedium.listeningFilter = true # does not work
#**.radioMedium.radioModeFilter = true # does not work

# ======================================================= Run configuration # ========================================================
# ====================================================================================================================================
# ====================================================================================================================================

[Config UDP_MA_to_CN]
# --------------------------- TCP configuration --------------------------------------
**.numPingApps = 0
**.CN1[*].numUdpApps = 1
**.CN2[*].numUdpApps = 1
**.CN3[*].numUdpApps = 1
**.CN4[*].numUdpApps = 1
**.MA[*].numUdpApps = 4
# ---------------------------------------------
**.MA[*].udpApp[*].typename = "UDPBasicApp"
**.MA[*].udpApp[*].destPort = 5000
**.MA[*].udpApp[0].destAddresses = "CN1[*]"
**.MA[*].udpApp[1].destAddresses = "CN2[*]"
**.MA[*].udpApp[2].destAddresses = "CN3[*]"
**.MA[*].udpApp[3].destAddresses = "CN4[*]"
#**.MA[*].udpApp[0].localPort = 1060
**.MA[*].udpApp[*].messageLength = 1000B
**.MA[*].udpApp[*].startTime = 20s + truncnormal(0s,4s)
**.MA[*].udpApp[*].stopTime = 430s
**.MA[*].udpApp[*].sendInterval = 0.04s
# ---------------------------------------------
**.CN1[*].udpApp[*].typename = "UDPEchoApp"
**.CN1[*].udpApp[*].localPort = 5000
**.CN2[*].udpApp[*].typename = "UDPEchoApp"
**.CN2[*].udpApp[*].localPort = 5000
**.CN3[*].udpApp[*].typename = "UDPEchoApp"
**.CN3[*].udpApp[*].localPort = 5000
**.CN4[*].udpApp[*].typename = "UDPEchoApp"
**.CN4[*].udpApp[*].localPort = 5000

[Config UDP_MA_to_CN2]
# --------------------------- UDP configuration --------------------------------------
**.numPingApps = 0
**.CN1[*].numUdpApps = 1
**.CN2[*].numUdpApps = 1
**.CN3[*].numUdpApps = 1
**.CN4[*].numUdpApps = 1
**.MA[*].numUdpApps = 4
# ---------------------------------------------
**.MA[*].udpApp[*].typename = "UDPBasicBurst"
**.MA[*].udpApp[*].interfaceTableModule = absPath(".interfaceTable")
**.MA[*].udpApp[0].destAddresses = "CN1[*]"
**.MA[*].udpApp[1].destAddresses = "CN2[*]"
**.MA[*].udpApp[2].destAddresses = "CN3[*]"
**.MA[*].udpApp[3].destAddresses = "CN4[*]"
**.MA[*].udpApp[*].chooseDestAddrMode = "once"
**.MA[*].udpApp[*].destPort = 5000
**.MA[*].udpApp[*].startTime = 20s + truncnormal(0s,4s)
**.MA[*].udpApp[*].stopTime = 430s
**.MA[*].udpApp[*].messageLength = 1000B
**.MA[*].udpApp[*].burstDuration = 0.01s
**.MA[*].udpApp[*].sleepDuration = 0s
**.MA[*].udpApp[*].sendInterval = 0.04s
**.MA[*].udpApp[*].delayLimit = 3s
# ---------------------------------------------
**.CN1[*].udpApp[*].typename = "UDPEchoApp"
**.CN1[*].udpApp[*].localPort = 5000
**.CN2[*].udpApp[*].typename = "UDPEchoApp"
**.CN2[*].udpApp[*].localPort = 5000
**.CN3[*].udpApp[*].typename = "UDPEchoApp"
**.CN3[*].udpApp[*].localPort = 5000
**.CN4[*].udpApp[*].typename = "UDPEchoApp"
**.CN4[*].udpApp[*].localPort = 5000

[Config UDP_MA_to_CN3]
# --------------------------- UDP configuration --------------------------------------
**.numPingApps = 0
**.CN1[*].numUdpApps = 1
**.CN2[*].numUdpApps = 1
**.CN3[*].numUdpApps = 1
**.CN4[*].numUdpApps = 1
**.MA[*].numUdpApps = 4
# ---------------------------------------------
**.MA[*].udpApp[*].typename = "UDPBasicBurst"
**.MA[*].udpApp[*].interfaceTableModule = absPath(".interfaceTable")
**.MA[*].udpApp[0].destAddresses = "CN1[*]"
**.MA[*].udpApp[1].destAddresses = "CN2[*]"
**.MA[*].udpApp[2].destAddresses = "CN3[*]"
**.MA[*].udpApp[3].destAddresses = "CN4[*]"
**.MA[*].udpApp[*].chooseDestAddrMode = "once"
**.MA[*].udpApp[*].destPort = 1500
**.MA[*].udpApp[*].startTime = 20s + truncnormal(0s,4s)
**.MA[*].udpApp[*].stopTime = 430s
**.MA[*].udpApp[*].messageLength = 1000B
**.MA[*].udpApp[*].burstDuration = 0.01s
**.MA[*].udpApp[*].sleepDuration = 0s
**.MA[*].udpApp[*].sendInterval = 0.04s
**.MA[*].udpApp[*].delayLimit = 3s
# ---------------------------------------------
**.CN1[*].udpApp[*].typename = "UDPBasicBurst"
**.CN1[*].udpApp[*].interfaceTableModule = absPath(".interfaceTable")
**.CN1[*].udpApp[*].destAddresses = ""
**.CN1[*].udpApp[*].chooseDestAddrMode = "once"
**.CN1[*].udpApp[*].localPort = 1500
**.CN1[*].udpApp[*].destPort = 1500
**.CN1[*].udpApp[*].startTime = 20s
**.CN1[*].udpApp[*].burstDuration = 0.01s
**.CN1[*].udpApp[*].sleepDuration = 0s
**.CN1[*].udpApp[*].sendInterval = 0.04s
**.CN1[*].udpApp[*].messageLength = 1000B
**.CN2[*].udpApp[*].typename = "UDPBasicBurst"
**.CN2[*].udpApp[*].interfaceTableModule = absPath(".interfaceTable")
**.CN2[*].udpApp[*].destAddresses = ""
**.CN2[*].udpApp[*].chooseDestAddrMode = "once"
**.CN2[*].udpApp[*].localPort = 1500
**.CN2[*].udpApp[*].destPort = 1500
**.CN2[*].udpApp[*].startTime = 20s
**.CN2[*].udpApp[*].burstDuration = 0.01s
**.CN2[*].udpApp[*].sleepDuration = 0s
**.CN2[*].udpApp[*].sendInterval = 0.04s
**.CN2[*].udpApp[*].messageLength = 1000B
**.CN3[*].udpApp[*].typename = "UDPBasicBurst"
**.CN3[*].udpApp[*].interfaceTableModule = absPath(".interfaceTable")
**.CN3[*].udpApp[*].destAddresses = ""
**.CN3[*].udpApp[*].chooseDestAddrMode = "once"
**.CN3[*].udpApp[*].localPort = 1500
**.CN3[*].udpApp[*].destPort = 1500
**.CN3[*].udpApp[*].startTime = 20s
**.CN3[*].udpApp[*].burstDuration = 0.01s
**.CN3[*].udpApp[*].sleepDuration = 0s
**.CN3[*].udpApp[*].sendInterval = 0.04s
**.CN3[*].udpApp[*].messageLength = 1000B
**.CN4[*].udpApp[*].typename = "UDPBasicBurst"
**.CN4[*].udpApp[*].interfaceTableModule = absPath(".interfaceTable")
**.CN4[*].udpApp[*].destAddresses = ""
**.CN4[*].udpApp[*].chooseDestAddrMode = "once"
**.CN4[*].udpApp[*].localPort = 1500
**.CN4[*].udpApp[*].destPort = 1500
**.CN4[*].udpApp[*].startTime = 20s
**.CN4[*].udpApp[*].burstDuration = 0.01s
**.CN4[*].udpApp[*].sleepDuration = 0s
**.CN4[*].udpApp[*].sendInterval = 0.04s
**.CN4[*].udpApp[*].messageLength = 1000B

[Config UDP_CN_to_MA]
# --------------------------- UDP configuration --------------------------------------
**.numPingApps = 0
**.CN1[*].numUdpApps = 1
**.CN2[*].numUdpApps = 1
**.CN3[*].numUdpApps = 1
**.CN4[*].numUdpApps = 1
**.MA[*].numUdpApps = 4
# ---------------------------------------------
**.MA[*].udpApp[*].typename = "UDPVideoStreamCli"
**.MA[*].udpApp[0].serverAddress = "CN1[*]"
**.MA[*].udpApp[1].serverAddress = "CN2[*]"
**.MA[*].udpApp[2].serverAddress = "CN3[*]"
**.MA[*].udpApp[3].serverAddress = "CN4[*]"
**.MA[*].udpApp[*].localPort = -1
**.MA[*].udpApp[*].serverPort = 2020
**.MA[*].udpApp[*].startTime = 22s + uniform(-2s,2s)
# ---------------------------------------------
**.CN1[*].udpApp[*].typename = "UDPVideoStreamSvr"
**.CN1[*].udpApp[*].videoSize = 25MiB
**.CN1[*].udpApp[*].localPort = 2020
**.CN1[*].udpApp[*].sendInterval = 10ms
**.CN1[*].udpApp[*].packetLen = 1000B
**.CN2[*].udpApp[*].typename = "UDPVideoStreamSvr"
**.CN2[*].udpApp[*].videoSize = 25MiB
**.CN2[*].udpApp[*].localPort = 2020
**.CN2[*].udpApp[*].sendInterval = 10ms
**.CN2[*].udpApp[*].packetLen = 1000B
**.CN3[*].udpApp[*].typename = "UDPVideoStreamSvr"
**.CN3[*].udpApp[*].videoSize = 25MiB
**.CN3[*].udpApp[*].localPort = 2020
**.CN3[*].udpApp[*].sendInterval = 10ms
**.CN3[*].udpApp[*].packetLen = 1000B
**.CN4[*].udpApp[*].typename = "UDPVideoStreamSvr"
**.CN4[*].udpApp[*].videoSize = 25MiB
**.CN4[*].udpApp[*].localPort = 2020
**.CN4[*].udpApp[*].sendInterval = 10ms
**.CN4[*].udpApp[*].packetLen = 1000B

[Config TCP_MA_to_CN]
# --------------------------- TCP configuration --------------------------------------
**.numPingApps = 0
**.CN1[*].numTcpApps = 1
**.CN2[*].numTcpApps = 1
**.CN3[*].numTcpApps = 1
**.CN4[*].numTcpApps = 1
**.MA[*].numTcpApps = 4
# mode 2 --------------------------------------
**.MA[*].tcpApp[0].connectAddress = "CN1[*]"
**.MA[*].tcpApp[1].connectAddress = "CN2[*]"
**.MA[*].tcpApp[2].connectAddress = "CN3[*]"
**.MA[*].tcpApp[3].connectAddress = "CN4[*]"
**.MA[*].tcpApp[*].typename = "TCPBasicClientApp"
**.MA[*].tcpApp[*].localAddress = ""
**.MA[*].tcpApp[*].localPort = -1
**.MA[*].tcpApp[*].connectPort = 1000 #same destination port numbers
**.MA[*].tcpApp[*].startTime = 22s + uniform(-2s,2s) 
**.MA[*].tcpApp[*].stopTime =  430s
**.MA[*].tcpApp[*].numRequestsPerSession = 1000000
**.MA[*].tcpApp[*].requestLength = 1000B
**.MA[*].tcpApp[*].replyLength = 100B
**.MA[*].tcpApp[*].thinkTime = 0.01s
**.MA[*].tcpApp[*].idleInterval = 0.01s
**.MA[*].tcpApp[*].reconnectInterval = 1s
**.MA[*].tcpApp[*].dataTransferMode = "object"
# ---------------------------------------------
**.CN1[*].tcpApp[*].typename = "TCPGenericSrvApp"
**.CN1[*].tcpApp[*].replyDelay = 0.00001s + uniform(0s,0.00001s) 
**.CN1[*].tcpApp[*].localPort = 1000
**.CN2[*].tcpApp[*].typename = "TCPGenericSrvApp"
**.CN2[*].tcpApp[*].replyDelay = 0.00001s + uniform(0s,0.00001s) 
**.CN2[*].tcpApp[*].localPort = 1000
**.CN3[*].tcpApp[*].typename = "TCPGenericSrvApp"
**.CN3[*].tcpApp[*].replyDelay = 0.00001s + uniform(0s,0.00001s) 
**.CN3[*].tcpApp[*].localPort = 1000
**.CN4[*].tcpApp[*].typename = "TCPGenericSrvApp"
**.CN4[*].tcpApp[*].replyDelay = 0.00001s + uniform(0s,0.00001s) 
**.CN4[*].tcpApp[*].localPort = 1000

[Config TCP_CN_to_MA]
# --------------------------- TCP configuration --------------------------------------
**.numPingApps = 0
**.CN1[*].numTcpApps = 1
**.CN2[*].numTcpApps = 1
**.CN3[*].numTcpApps = 1
**.CN4[*].numTcpApps = 1
**.MA[*].numTcpApps = 4
# mode 2 --------------------------------------
**.MA[*].tcpApp[0].connectAddress = "CN1[*]"
**.MA[*].tcpApp[1].connectAddress = "CN2[*]"
**.MA[*].tcpApp[2].connectAddress = "CN3[*]"
**.MA[*].tcpApp[3].connectAddress = "CN4[*]"
**.MA[*].tcpApp[*].typename = "TCPBasicClientApp"
**.MA[*].tcpApp[*].localAddress = ""
**.MA[*].tcpApp[*].localPort = -1
**.MA[*].tcpApp[*].connectPort = 1000 #same destination port numbers
**.MA[*].tcpApp[*].startTime = 22s + uniform(-2s,2s) 
**.MA[*].tcpApp[*].stopTime =  430s
**.MA[*].tcpApp[*].numRequestsPerSession = 100000
**.MA[*].tcpApp[*].requestLength = 250B
**.MA[*].tcpApp[*].replyLength = 10MiB
**.MA[*].tcpApp[*].thinkTime = 0.1s
**.MA[*].tcpApp[*].idleInterval = 0.1s
**.MA[*].tcpApp[*].reconnectInterval = 1s
**.MA[*].tcpApp[*].dataTransferMode = "object"
# ---------------------------------------------
**.CN1[*].tcpApp[*].typename = "TCPGenericSrvApp"
**.CN1[*].tcpApp[*].replyDelay = 0.00001s + uniform(0s,0.00001s) 
**.CN1[*].tcpApp[*].localPort = 1000
**.CN2[*].tcpApp[*].typename = "TCPGenericSrvApp"
**.CN2[*].tcpApp[*].replyDelay = 0.00001s + uniform(0s,0.00001s) 
**.CN2[*].tcpApp[*].localPort = 1000
**.CN3[*].tcpApp[*].typename = "TCPGenericSrvApp"
**.CN3[*].tcpApp[*].replyDelay = 0.00001s + uniform(0s,0.00001s) 
**.CN3[*].tcpApp[*].localPort = 1000
**.CN4[*].tcpApp[*].typename = "TCPGenericSrvApp"
**.CN4[*].tcpApp[*].replyDelay = 0.00001s + uniform(0s,0.00001s) 
**.CN4[*].tcpApp[*].localPort = 1000

#[Config Ping_MA_to_CN]
## --------------------------- PING configuration -------------------------------------
##sim-time-limit = 40s  
#*.MA[*].numPingApps = 4
#*.MA[*].pingApp[0].destAddr = "CN1[*]"
#*.MA[*].pingApp[1].destAddr = "CN2[*]"
#*.MA[*].pingApp[2].destAddr = "CN3[*]"
#*.MA[*].pingApp[3].destAddr = "CN4[*]"
#*.MA[*].pingApp[*].startTime = 20s + truncnormal(0s,4s)
#*.MA[*].pingApp[*].stopTime = 430s
#*.MA[*].pingApp[*].packetSize = 64B
#*.MA[*].pingApp[*].sendInterval = 0.04s	# 0.05s + uniform(-0.001s,0.001s)

#[Config ETSI302663_Video] # SCH 178 AC_VI
#**.mac.EDCA = true # ETSI 302 663  
#**.mac.AIFSN0 = 9 # 
#**.mac.AIFSN1 = 6 # 
#**.mac.AIFSN2 = 3 # 
#**.mac.AIFSN3 = 2 # 
#**.mac.defaultAC = 2 # determines wait time 
#**.mac.AIFSN = 2 # 
#**.mac.cwMinData = 7 # 
#**.mac.cwMaxData = 15 # 
#**.mac.slotTime = 13us
## ---------------------------------------------
#**.bitrate = 18Mbps
#**.radio.carrierFrequency = 5.89e9 Hz # ETSI 302571 - 6.10.2  
#**.radio.transmitter.power = 200mW # ETSI 302663-4.3: G5 SCH2 channelNo 178; rate=12 Mbit/s; power_limit=23dBm
#**.radio.receiver.sensitivity = -77dBm # Defined as min SNR value to distinguish signal from noise. If received signal is below this value it is interpreted as noise. Value taken from C2C  system profile v1.0.4 
#**.radio.receiver.energyDetection = -62dBm
#**.radio.receiver.snirThreshold = 8dB # defined as minimum SNR to try to interpret data. It is calculated from the sum of all received noise signals. Taken from ETSI 102687
#**.radioMedium.**.maxTransmissionPower = 200mW
#**.radio.transmitter.modulation = "QAM-16"
#**.radio.receiver.modulation = "QAM-16"
#**.radioMedium.mediumLimitCache.minReceptionPower = -85dBm # ETSI  302571 6.10.2: specifies rec sensitivity -85dBm for BPSK
#**.radioMedium.mediumLimitCache.minInterferencePower = -95dBm # same to background noise power
#
#[Config ETSI302663_BestEffort] # SCH 176 AC_BE
#**.mac.EDCA = true # ETSI 302663 B4.4
#**.mac.AIFSN0 = 9 # 
#**.mac.AIFSN1 = 6 # 
#**.mac.AIFSN2 = 3 # 
#**.mac.AIFSN3 = 2 # 
#**.mac.defaultAC = 1 # 
#**.mac.AIFSN = 1 # 
#**.mac.cwMinData = 15 # 
#**.mac.cwMaxData = 1023 # 
#**.mac.slotTime = 13us
## ---------------------------------------------
#**.bitrate = 6Mbps
#**.radio.carrierFrequency = 5.88e9 Hz
#**.radio.transmitter.power = 200mW # ETSI 302663-4.3: G5 SCH2 channelNo 178; rate=12 Mbit/s; power_limit=23dBm
#**.radio.receiver.sensitivity = -82dBm # Defined as min SNR value to distinguish signal from noise. If received signal is below this value it is interpreted as noise. Value taken from C2C  system profile v1.0.4 
#**.radio.receiver.energyDetection = -62dBm
#**.radio.receiver.snirThreshold = 3dB # defined as minimum SNR to try to interpret data. It is calculated from the sum of all received noise signals. Taken from ETSI 102687
#**.radioMedium.**.maxTransmissionPower = 200mW 
#**.radio.transmitter.modulation = "QPSK"
#**.radio.receiver.modulation = "QPSK"
#**.radioMedium.mediumLimitCache.minReceptionPower = -85dBm # ETSI  302571 6.10.2: specifies rec sensitivity -85dBm for BPSK
#**.radioMedium.mediumLimitCache.minInterferencePower = -95dBm # same to background noise power

#[Config Ping_CN_to_MA]
#**.DA[*].idLayer.enableNodeRequesting = true
## --------------------------- PING configuration -------------------------------------
## MA needs to initiate the communication to establish a tuple in Data Agent
#*.MA[*].numPingApps = 1
#*.MA[*].pingApp[*].destAddr = "CN*[*]"
#*.MA[*].pingApp[*].startTime = 5s
#*.MA[*].pingApp[*].stopTime = 9s
#*.MA[*].pingApp[*].packetSize = 64B
#*.MA[*].pingApp[*].sendInterval = 0.1s	
#*.CN*[*].numPingApps = 1 
#*.CN*[*].pingApp[*].destAddr = "DA1[*]"
#*.CN*[*].pingApp[*].startTime = 10s
#*.CN*[*].pingApp[*].stopTime = 430s
#*.CN*[*].pingApp[*].packetSize = 64B
#*.CN*[*].pingApp[*].sendInterval = 0.01s	

#[Config TCP_CN_to_MA]
#**.idLayer.enableNodeRequesting = true
## --------------------------- TCP configuration --------------------------------------
#**.numPingApps = 0
#**.numTcpApps = 2
## mode 2 --------------------------------------
#**.MA[*].tcpApp[0].typename = "TCPBasicClientApp"
#**.MA[*].tcpApp[*].dataTransferMode = "object"
#**.MA[*].tcpApp[0].localAddress = ""
#**.MA[*].tcpApp[0].localPort = -1
#**.MA[*].tcpApp[0].connectAddress = "CN*[*]"
#**.MA[*].tcpApp[0].connectPort = 1000 #same destination port numbers
#**.MA[*].tcpApp[0].startTime = 20s
#**.MA[*].tcpApp[0].stopTime =  29s
#**.MA[*].tcpApp[0].numRequestsPerSession = 1
#**.MA[*].tcpApp[0].requestLength = 100B
#**.MA[*].tcpApp[0].replyLength = 100B
#**.MA[*].tcpApp[0].thinkTime = 10s
#**.MA[*].tcpApp[0].idleInterval = 10s
#**.MA[*].tcpApp[0].reconnectInterval = 10s
#**.MA[*].tcpApp[1].typename = "TCPGenericSrvApp"
#**.MA[*].tcpApp[1].replyDelay = 0.00001s
#**.MA[*].tcpApp[1].localPort = 2000
## ---------------------------------------------
#**.CN*[*].tcpApp[0].typename = "TCPGenericSrvApp"
#**.CN*[*].tcpApp[*].dataTransferMode = "object"
#**.CN*[*].tcpApp[0].replyDelay = 0.00001s
#**.CN*[*].tcpApp[0].localPort = 1000
#**.CN*[*].tcpApp[1].typename = "TCPBasicClientApp"
#**.CN*[*].tcpApp[1].localAddress = ""
#**.CN*[*].tcpApp[1].localPort = -1
#**.CN*[*].tcpApp[1].connectAddress = "DA[*]"
#**.CN*[*].tcpApp[1].connectPort = 2000 #same destination port numbers
#**.CN*[*].tcpApp[1].startTime = 30s
#**.CN*[*].tcpApp[1].stopTime =  430s
#**.CN*[*].tcpApp[1].numRequestsPerSession = 100000000
#**.CN*[*].tcpApp[1].requestLength = 1000B
#**.CN*[*].tcpApp[1].replyLength = 100B
#**.CN*[*].tcpApp[1].thinkTime = 0.1s
#**.CN*[*].tcpApp[1].idleInterval = 0.1s
#**.CN*[*].tcpApp[1].reconnectInterval = 0.1s

#[Config UDP_CN_to_MA]
#**.idLayer.enableNodeRequesting = true
## --------------------------- TCP configuration --------------------------------------
#**.numPingApps = 0
#**.numUdpApps = 1
## ---------------------------------------------
#**.MA[*].udpApp[*].typename = "UDPVideoStreamCli"
#**.MA[*].udpApp[*].serverAddress = "CN*[*]"
#**.MA[*].udpApp[*].localPort = -1
#**.MA[*].udpApp[*].serverPort = 2111
#**.MA[*].udpApp[*].startTime = 20s
## ---------------------------------------------
#**.CN*[*].udpApp[*].typename = "UDPVideoStreamSvr"
#**.CN*[*].udpApp[*].videoSize = 25MiB
#**.CN*[*].udpApp[*].localPort = 2111
#**.CN*[*].udpApp[*].sendInterval = 100ms
#**.CN*[*].udpApp[*].packetLen = 1000B
