<?xml version="1.0" encoding="UTF-8"?>

<!-- generated on Mon Aug 17 15:54:37 2015 by SUMO polyconvert Version 0.23.0
<?xml version="1.0" encoding="UTF-8"?>

<configuration xmlns:xsi="http://www.w3.org/2001/XMLSchema-instance" xsi:noNamespaceSchemaLocation="http://sumo.dlr.de/xsd/polyconvertConfiguration.xsd">

    <input>
        <net-file value="map.net.xml"/>
        <osm-files value="map.osm"/>
        <type-file value="typemap.xml"/>
    </input>

    <output>
        <output-file value="map.poly.xml"/>
    </output>

</configuration>
-->

<additional xmlns:xsi="http://www.w3.org/2001/XMLSchema-instance" xsi:noNamespaceSchemaLocation="http://sumo.dlr.de/xsd/additional_file.xsd">
    <location netOffset="-470497.87,-5549864.73" convBoundary="-2082.03,-1003.87,7815.85,3800.28" origBoundary="8.558344,50.091235,8.697430,50.134461" projParameter="+proj=utm +zone=32 +ellps=WGS84 +datum=WGS84 +units=m +no_defs"/>

    <poly id="100657336" type="building" color="255,230,230" fill="1" layer="-1.00" shape="5139.67,911.25 5148.49,916.56 5154.29,907.13 5145.42,901.77 5139.67,911.25"/>
    <poly id="100657338" type="building" color="255,230,230" fill="1" layer="-1.00" shape="5158.02,837.48 5151.82,848.58 5158.05,852.05 5162.70,843.77 5167.53,846.46 5162.63,855.20 5168.95,858.73 5174.01,849.52 5181.08,837.23 5163.61,827.57 5158.02,837.48"/>
    <poly id="100657339" type="building" color="255,230,230" fill="1" layer="-1.00" shape="5284.00,906.77 5271.75,899.97 5266.60,909.17 5273.39,912.96 5274.89,910.27 5280.36,913.30 5284.00,906.77"/>
    <poly id="100657341" type="building" color="255,230,230" fill="1" layer="-1.00" shape="5331.55,952.24 5324.87,942.32 5345.55,927.42 5351.52,935.85 5348.60,940.08 5341.66,951.89 5337.81,949.56 5338.72,948.44 5337.18,947.61 5336.20,946.02 5333.10,948.22 5334.77,950.62 5331.55,952.24"/>
    <poly id="100657342" type="building" color="255,230,230" fill="1" layer="-1.00" shape="4969.55,965.26 4965.03,970.77 4973.45,977.64 4977.97,972.12 4969.55,965.26"/>
    <poly id="100657343" type="amenity" color="237,199,199" fill="1" layer="-1.00" shape="4933.38,860.19 4922.37,853.57 4930.90,839.55 4939.49,844.69 4937.26,848.36 4941.78,851.07 4939.14,855.43 4946.00,859.55 4944.05,862.78 4945.63,863.73 4943.93,866.55 4933.38,860.19"/>
    <poly id="100657343#1" type="building" color="255,230,230" fill="1" layer="-1.00" shape="4933.38,860.19 4922.37,853.57 4930.90,839.55 4939.49,844.69 4937.26,848.36 4941.78,851.07 4939.14,855.43 4946.00,859.55 4944.05,862.78 4945.63,863.73 4943.93,866.55 4933.38,860.19"/>
    <poly id="100657346" type="building" color="255,230,230" fill="1" layer="-1.00" shape="4927.95,877.82 4925.92,869.00 4926.92,867.35 4917.47,861.67 4914.79,866.03 4919.56,880.34 4927.95,877.82"/>
    <poly id="100657347" type="building" color="255,230,230" fill="1" layer="-1.00" shape="5107.26,847.57 5096.81,841.61 5091.85,850.26 5102.37,856.26 5112.92,862.27 5117.88,853.63 5107.26,847.57"/>
    <poly id="100657351" type="building" color="255,230,230" fill="1" layer="-1.00" shape="5181.86,945.55 5191.53,950.88 5197.97,939.49 5199.58,936.67 5190.09,931.31 5188.43,934.49 5181.86,945.55"/>
    <poly id="100657352" type="building" color="255,230,230" fill="1" layer="-1.00" shape="5103.30,876.38 5093.39,870.40 5087.65,879.86 5097.56,885.84 5103.30,876.38"/>
    <poly id="100657353" type="building" color="255,230,230" fill="1" layer="-1.00" shape="5278.32,938.10 5271.14,927.57 5267.88,929.78 5264.71,925.13 5250.76,934.59 5258.63,946.12 5264.19,942.35 5266.67,945.99 5278.32,938.10"/>
    <poly id="100657355" type="building" color="255,230,230" fill="1" layer="-1.00" shape="4932.97,924.94 4937.33,939.41 4948.70,936.01 4944.37,921.52 4932.97,924.94"/>
    <poly id="100657356" type="building" color="255,230,230" fill="1" layer="-1.00" shape="5206.47,923.51 5212.60,926.98 5218.16,917.20 5212.04,913.74 5206.47,923.51"/>
    <poly id="100657357" type="building" color="255,230,230" fill="1" layer="-1.00" shape="5106.35,945.68 5112.82,934.69 5054.98,900.89 5048.66,911.65 5051.78,913.48 5056.75,916.38 5079.21,929.51 5063.16,956.80 5070.41,961.04 5070.96,960.09 5073.40,955.93 5086.31,933.97 5106.35,945.68"/>
    <poly id="100657358" type="building" color="255,230,230" fill="1" layer="-1.00" shape="5199.45,955.34 5215.10,964.17 5222.21,951.62 5241.17,918.17 5227.21,910.31 5215.54,930.89 5213.85,929.94 5205.90,943.96 5199.45,955.34"/>
    <poly id="100657360" type="building" color="255,230,230" fill="1" layer="-1.00" shape="4926.92,867.35 4928.35,864.99 4931.78,867.04 4933.33,864.46 4931.47,863.34 4933.38,860.19 4922.37,853.57 4917.47,861.67 4926.92,867.35"/>
    <poly id="100657369" type="building" color="255,230,230" fill="1" layer="-1.00" shape="5258.63,946.12 5250.76,934.59 5248.96,931.65 5242.64,935.96 5244.92,939.29 5223.55,952.68 5222.21,951.62 5215.10,964.17 5223.93,969.75 5258.63,946.12"/>
    <poly id="100657369#1" type="tourism" color="207,245,201" fill="1" layer="-2.00" shape="5258.63,946.12 5250.76,934.59 5248.96,931.65 5242.64,935.96 5244.92,939.29 5223.55,952.68 5222.21,951.62 5215.10,964.17 5223.93,969.75 5258.63,946.12"/>
    <poly id="100657370" type="building" color="255,230,230" fill="1" layer="-1.00" shape="4963.09,1016.60 4966.87,1030.26 4977.47,1027.34 4974.36,1016.14 4976.30,1013.87 4969.97,1008.51 4963.09,1016.60"/>
    <poly id="100657372" type="building" color="255,230,230" fill="1" layer="-1.00" shape="4896.58,918.43 4900.33,929.47 4910.76,925.93 4907.01,914.90 4896.58,918.43"/>
    <poly id="100657374" type="building" color="255,230,230" fill="1" layer="-1.00" shape="5373.88,923.68 5366.50,912.60 5375.63,905.90 5383.60,917.25 5373.88,923.68"/>
    <poly id="100657375" type="building" color="255,230,230" fill="1" layer="-1.00" shape="5012.01,910.97 5021.06,918.00 5010.83,931.09 5001.78,924.05 5012.01,910.97"/>
    <poly id="100657376" type="building" color="255,230,230" fill="1" layer="-1.00" shape="4940.83,951.02 4945.48,966.45 4956.85,963.05 4952.20,947.61 4940.83,951.02"/>
    <poly id="100657377" type="building" color="255,230,230" fill="1" layer="-1.00" shape="5249.87,900.47 5257.65,887.34 5268.77,893.90 5260.99,907.03 5249.87,900.47"/>
    <poly id="100657379" type="building" color="255,230,230" fill="1" layer="-1.00" shape="5091.85,850.26 5087.28,858.21 5097.81,864.22 5102.37,856.26 5091.85,850.26"/>
    <poly id="100657380" type="building" color="255,230,230" fill="1" layer="-1.00" shape="4969.82,1041.84 4971.08,1045.95 4976.81,1044.21 4975.56,1040.10 4969.82,1041.84"/>
    <poly id="100657386" type="building" color="255,230,230" fill="1" layer="-1.00" shape="5191.53,950.88 5199.45,955.34 5205.90,943.96 5197.97,939.49 5191.53,950.88"/>
    <poly id="100657387" type="building" color="255,230,230" fill="1" layer="-1.00" shape="5321.91,960.69 5324.81,964.67 5320.96,967.53 5318.06,963.44 5311.86,967.63 5304.27,956.47 5314.15,949.50 5321.91,960.69"/>
    <poly id="100657391" type="building" color="255,230,230" fill="1" layer="-1.00" shape="4893.67,913.17 4883.32,907.50 4886.47,901.06 4893.53,889.40 4898.73,892.55 4897.09,895.33 4900.59,897.25 4898.76,900.46 4902.70,902.49 4893.67,913.17"/>
    <poly id="100657392" type="building" color="255,230,230" fill="1" layer="-1.00" shape="5068.03,852.00 5060.55,864.59 5028.55,845.49 5035.91,832.99 5058.34,846.26 5068.03,852.00"/>
    <poly id="100657393" type="building" color="255,230,230" fill="1" layer="-1.00" shape="5004.36,866.58 4998.82,875.78 4997.38,878.17 4992.59,875.30 4994.05,872.87 4987.42,868.90 4992.94,859.74 5004.36,866.58"/>
    <poly id="100657394" type="building" color="255,230,230" fill="1" layer="-1.00" shape="5271.14,927.57 5278.32,938.10 5285.31,933.35 5280.50,926.29 5278.14,922.83 5271.14,927.57"/>
    <poly id="100657395" type="building" color="255,230,230" fill="1" layer="-1.00" shape="4904.10,940.51 4907.85,951.54 4918.15,948.33 4914.53,936.98 4904.10,940.51"/>
    <poly id="100657400" type="building" color="255,230,230" fill="1" layer="-1.00" shape="4950.14,981.88 4954.78,997.30 4966.15,993.89 4961.50,978.47 4950.14,981.88"/>
    <poly id="100657404" type="building" color="255,230,230" fill="1" layer="-1.00" shape="4988.24,931.99 4995.16,923.30 4998.92,926.27 4996.87,928.85 5006.61,936.54 4998.15,947.19 4988.99,939.94 4984.65,936.51 4988.24,931.99"/>
    <poly id="100657408" type="building" color="255,230,230" fill="1" layer="-1.00" shape="5294.21,891.02 5317.74,904.62 5319.98,905.10 5322.36,904.16 5363.72,875.65 5365.98,873.99 5366.53,871.17 5363.28,868.77 5339.81,854.50 5333.92,864.15 5341.56,868.47 5342.28,867.72 5346.12,869.70 5346.12,873.44 5333.95,882.08 5332.73,881.25 5328.37,874.74 5324.34,877.31 5324.15,877.03 5319.40,880.49 5324.42,888.57 5318.96,892.25 5300.58,880.64 5294.21,891.02"/>
    <poly id="100657412" type="building" color="255,230,230" fill="1" layer="-1.00" shape="5113.20,882.36 5103.30,876.38 5097.56,885.84 5107.47,891.82 5113.20,882.36"/>
    <poly id="100657415" type="building" color="255,230,230" fill="1" layer="-1.00" shape="4998.82,875.78 5004.36,866.58 5012.25,871.31 5003.88,885.21 4998.36,881.90 5001.19,877.19 4998.82,875.78"/>
    <poly id="100657417" type="building" color="255,230,230" fill="1" layer="-1.00" shape="4976.66,1067.10 4973.66,1057.76 4989.47,1052.69 4992.48,1062.03 4976.66,1067.10"/>
    <poly id="100657425" type="building" color="255,230,230" fill="1" layer="-1.00" shape="5125.48,942.09 5148.79,955.90 5139.00,972.46 5129.33,966.78 5134.11,958.70 5130.26,956.43 5125.50,964.46 5115.68,958.69 5121.22,949.34 5125.48,942.09"/>
    <poly id="100657426" type="building" color="255,230,230" fill="1" layer="-1.00" shape="4983.57,854.14 4976.96,865.11 4954.51,851.67 4961.12,840.70 4983.57,854.14"/>
    <poly id="100657427" type="building" color="255,230,230" fill="1" layer="-1.00" shape="4995.16,923.30 4984.70,915.04 4992.97,904.63 4983.68,897.29 4972.98,910.76 4965.65,904.98 4963.24,912.25 4988.24,931.99 4995.16,923.30"/>
    <poly id="100657431" type="building" color="255,230,230" fill="1" layer="-1.00" shape="4922.98,891.72 4934.89,888.15 4938.54,900.28 4926.64,903.84 4922.98,891.72"/>
    <poly id="100657432" type="building" color="255,230,230" fill="1" layer="-1.00" shape="5093.39,870.40 5083.48,864.42 5077.74,873.88 5087.65,879.86 5093.39,870.40"/>
    <poly id="100657434" type="building" color="255,230,230" fill="1" layer="-1.00" shape="5293.57,963.82 5282.95,971.28 5289.28,980.29 5291.66,978.62 5293.76,977.15 5295.06,979.00 5301.20,974.70 5293.57,963.82"/>
    <poly id="100657435" type="building" color="255,230,230" fill="1" layer="-1.00" shape="5249.87,900.47 5257.65,887.34 5233.32,872.99 5227.45,882.90 5232.09,885.64 5230.18,888.86 5249.87,900.47"/>
    <poly id="100657438" type="building" color="255,230,230" fill="1" layer="-1.00" shape="5351.52,935.85 5345.55,927.42 5366.50,912.60 5373.88,923.68 5361.28,932.65 5359.54,930.18 5351.52,935.85"/>
    <poly id="100657439" type="building" color="255,230,230" fill="1" layer="-1.00" shape="4907.01,914.90 4896.58,918.43 4893.67,913.17 4902.70,902.49 4907.01,914.90"/>
    <poly id="100657442" type="building" color="255,230,230" fill="1" layer="-1.00" shape="4937.33,939.41 4940.83,951.02 4952.20,947.61 4948.70,936.01 4937.33,939.41"/>
    <poly id="100657446" type="building" color="255,230,230" fill="1" layer="-1.00" shape="5239.13,844.49 5237.98,846.99 5238.30,849.94 5241.95,851.81 5237.49,858.91 5224.25,851.00 5223.55,846.85 5228.86,838.34 5239.13,844.49"/>
    <poly id="100657449" type="building" color="255,230,230" fill="1" layer="-1.00" shape="4978.02,892.46 4989.09,901.42 4994.60,894.66 4995.62,895.48 4998.97,891.37 4994.80,888.00 4993.63,889.45 4988.75,885.49 4987.44,887.10 4984.40,884.63 4978.02,892.46"/>
    <poly id="100657450" type="building" color="255,230,230" fill="1" layer="-1.00" shape="5295.90,926.17 5301.93,922.04 5301.43,916.24 5284.00,906.77 5280.36,913.30 5291.08,919.11 5295.90,926.17"/>
    <poly id="100657451" type="building" color="255,230,230" fill="1" layer="-1.00" shape="4944.37,921.52 4946.87,920.77 4940.50,899.69 4938.54,900.28 4926.64,903.84 4933.00,924.93 4944.37,921.52"/>
    <poly id="100657452" type="building" color="255,230,230" fill="1" layer="-1.00" shape="5331.55,952.24 5326.42,955.78 5327.31,956.92 5321.91,960.69 5314.15,949.50 5324.87,942.32 5331.55,952.24"/>
    <poly id="100657453" type="building" color="255,230,230" fill="1" layer="-1.00" shape="4988.93,1004.84 4996.34,995.03 5036.72,1025.38 5026.13,1032.79 4988.93,1004.84"/>
    <poly id="100657454" type="building" color="255,230,230" fill="1" layer="-1.00" shape="5348.60,940.08 5368.84,951.90 5361.90,963.70 5358.12,961.50 5348.08,955.64 5341.66,951.89 5348.60,940.08"/>
    <poly id="100657455" type="building" color="255,230,230" fill="1" layer="-1.00" shape="4922.98,891.72 4934.89,888.15 4933.57,883.79 4930.06,884.84 4927.95,877.82 4919.56,880.34 4922.98,891.72"/>
    <poly id="100657458" type="building" color="255,230,230" fill="1" layer="-1.00" shape="5383.60,917.25 5375.63,905.90 5397.98,890.61 5405.75,902.13 5401.24,905.19 5383.60,917.25"/>
    <poly id="100657459" type="building" color="255,230,230" fill="1" layer="-1.00" shape="5193.45,860.62 5200.44,864.89 5207.86,852.79 5196.27,845.72 5192.80,851.38 5197.39,854.19 5193.45,860.62"/>
    <poly id="100657461" type="building" color="255,230,230" fill="1" layer="-1.00" shape="4988.99,939.94 4998.15,947.19 4984.43,964.24 4970.52,952.89 4965.88,949.12 4975.00,938.00 4984.33,945.62 4988.99,939.94"/>
    <poly id="100657462" type="building" color="255,230,230" fill="1" layer="-1.00" shape="4900.33,929.47 4904.10,940.51 4914.53,936.98 4910.76,925.93 4900.33,929.47"/>
    <poly id="100657463" type="building" color="255,230,230" fill="1" layer="-1.00" shape="5188.43,934.49 5184.50,932.17 5188.72,925.07 5183.48,921.97 5172.69,940.12 5181.86,945.55 5188.43,934.49"/>
    <poly id="100657464" type="building" color="255,230,230" fill="1" layer="-1.00" shape="4945.48,966.45 4950.14,981.88 4961.50,978.47 4956.85,963.05 4945.48,966.45"/>
    <poly id="100657471" type="building" color="255,230,230" fill="1" layer="-1.00" shape="4929.15,983.41 4918.15,948.33 4907.85,951.54 4904.44,952.60 4915.45,987.71 4929.15,983.41"/>
    <poly id="100657475" type="building" color="255,230,230" fill="1" layer="-1.00" shape="5133.02,894.33 5123.11,888.34 5117.37,897.80 5124.24,901.95 5127.28,903.78 5133.02,894.33"/>
    <poly id="100657481" type="building" color="255,230,230" fill="1" layer="-1.00" shape="5123.11,888.34 5113.20,882.36 5107.47,891.82 5117.37,897.80 5123.11,888.34"/>
    <poly id="100657484" type="building" color="255,230,230" fill="1" layer="-1.00" shape="5311.86,967.63 5301.20,974.70 5293.57,963.82 5304.27,956.47 5311.86,967.63"/>
    <poly id="100657486" type="building" color="255,230,230" fill="1" layer="-1.00" shape="4992.94,859.74 4987.42,868.90 4985.00,867.44 4982.82,871.07 4975.88,866.91 4976.96,865.11 4983.57,854.14 4992.94,859.74"/>
    <poly id="100856618" type="building" color="255,230,230" fill="1" layer="-1.00" shape="5182.50,894.10 5189.49,882.72 5181.15,877.62 5176.70,884.88 5173.52,882.94 5170.96,887.06 5182.50,894.10"/>
    <poly id="100856619" type="building" color="255,230,230" fill="1" layer="-1.00" shape="5183.48,921.97 5190.14,910.77 5198.85,915.92 5192.19,927.12 5188.72,925.07 5183.48,921.97"/>
    <poly id="100856620" type="building" color="255,230,230" fill="1" layer="-1.00" shape="5174.61,906.95 5182.50,894.10 5170.96,887.06 5168.42,891.21 5171.49,893.08 5166.15,901.77 5174.61,906.95"/>
    <poly id="100856621" type="building" color="255,230,230" fill="1" layer="-1.00" shape="5196.29,900.44 5199.92,894.33 5206.88,898.45 5205.19,901.28 5208.10,903.00 5209.74,900.24 5216.14,904.02 5212.41,909.98 5204.99,905.58 5196.29,900.44"/>
    <poly id="100856623" type="building" color="255,230,230" fill="1" layer="-1.00" shape="5194.59,874.41 5200.44,864.89 5193.45,860.62 5189.56,866.95 5187.05,865.42 5185.09,868.60 5186.34,869.38 5194.59,874.41"/>
    <poly id="100856624" type="building" color="255,230,230" fill="1" layer="-1.00" shape="5190.14,910.77 5196.29,900.44 5204.99,905.58 5198.85,915.92 5190.14,910.77"/>
    <poly id="100856625" type="building" color="255,230,230" fill="1" layer="-1.00" shape="5189.49,882.72 5194.59,874.41 5186.34,869.38 5181.25,877.67 5189.49,882.72"/>
    <poly id="100856626" type="building" color="255,230,230" fill="1" layer="-1.00" shape="5203.53,888.26 5208.55,879.82 5217.43,885.07 5212.42,893.51 5203.53,888.26"/>
    <poly id="100856627" type="building" color="255,230,230" fill="1" layer="-1.00" shape="5199.92,894.33 5203.53,888.26 5212.42,893.51 5219.79,897.87 5216.14,904.02 5209.74,900.24 5211.48,897.30 5208.58,895.59 5206.88,898.45 5199.92,894.33"/>
    <poly id="102852742" type="landuse" color="194,194,130" fill="1" layer="-3.00" shape="962.75,1859.05 982.68,1824.35 1192.34,1948.28 1171.03,1983.78 962.75,1859.05"/>
    <poly id="106616587" type="building" color="255,230,230" fill="1" layer="-1.00" shape="5536.51,822.67 5530.54,829.28 5521.30,837.59 5521.84,838.48 5513.56,845.23 5512.63,845.00 5511.30,844.96 5510.03,845.24 5508.78,845.89 5507.85,846.71 5506.95,848.11 5506.51,849.96 5506.64,851.48 5507.34,853.11 5508.24,854.19 5509.68,855.13 5511.34,855.55 5512.93,855.46 5541.01,871.70 5553.43,850.37 5549.43,848.09 5548.01,850.57 5546.43,849.67 5544.92,852.32 5546.15,853.03 5543.40,857.87 5529.37,849.88 5529.13,848.79 5531.44,846.58 5532.57,847.75 5534.53,847.80 5537.08,845.34 5537.03,843.46 5535.95,842.32 5537.58,840.76 5541.49,836.97 5544.16,839.41 5546.78,836.81 5544.09,834.49 5546.80,831.58 5536.51,822.67"/>
    <poly id="11017083" type="building" color="255,230,230" fill="1" layer="-1.00" shape="4755.53,1176.41 4760.63,1183.28 4766.91,1179.21 4769.64,1183.13 4808.74,1239.19 4798.70,1255.79 4790.28,1250.30 4783.46,1244.46 4776.38,1236.88 4770.31,1229.50 4765.17,1221.23 4760.16,1210.13 4756.80,1199.26 4758.07,1199.01 4756.67,1192.54 4755.66,1184.33 4755.53,1176.41"/>
    <poly id="11017114" type="building" color="255,230,230" fill="1" layer="-1.00" shape="4820.76,1131.09 4815.05,1122.59 4819.60,1123.17 4827.95,1125.48 4835.73,1129.09 4841.84,1132.95 4848.62,1139.95 4853.47,1146.15 4854.98,1149.38 4857.68,1155.20 4854.37,1161.16 4857.29,1165.90 4846.77,1182.04 4817.85,1140.39 4819.20,1139.40 4815.94,1134.54 4820.76,1131.09"/>
    <poly id="11017234" type="building" color="255,230,230" fill="1" layer="-1.00" shape="4414.85,1314.30 4433.53,1318.75 4447.24,1323.76 4463.72,1336.58 4473.61,1351.78 4478.20,1370.83 4476.61,1389.11 4471.01,1403.24 4464.03,1415.12 4449.66,1426.15 4432.56,1431.49 4411.78,1433.84 4394.54,1430.75 4379.16,1421.82 4369.34,1413.05 4397.01,1408.61 4406.22,1411.48 4419.24,1410.18 4431.78,1404.04 4441.75,1393.96 4447.37,1383.18 4448.30,1372.88 4446.20,1361.12 4441.11,1350.39 4433.55,1343.49 4424.07,1336.43 4412.94,1332.45 4414.85,1314.30"/>
    <poly id="11017234#1" type="tourism" color="207,245,201" fill="1" layer="-2.00" shape="4414.85,1314.30 4433.53,1318.75 4447.24,1323.76 4463.72,1336.58 4473.61,1351.78 4478.20,1370.83 4476.61,1389.11 4471.01,1403.24 4464.03,1415.12 4449.66,1426.15 4432.56,1431.49 4411.78,1433.84 4394.54,1430.75 4379.16,1421.82 4369.34,1413.05 4397.01,1408.61 4406.22,1411.48 4419.24,1410.18 4431.78,1404.04 4441.75,1393.96 4447.37,1383.18 4448.30,1372.88 4446.20,1361.12 4441.11,1350.39 4433.55,1343.49 4424.07,1336.43 4412.94,1332.45 4414.85,1314.30"/>
    <poly id="11017339" type="building" color="255,230,230" fill="1" layer="-1.00" shape="4474.79,1018.40 4457.83,1119.82 4454.41,1119.41 4447.25,1118.12 4443.80,1117.46 4442.36,1124.46 4430.16,1122.25 4430.00,1123.94 4429.32,1127.87 4428.99,1129.64 4407.72,1128.92 4386.59,1127.42 4365.51,1125.01 4344.46,1121.82 4324.96,1118.03 4305.79,1113.40 4287.25,1108.56 4268.28,1102.49 4269.43,1095.25 4257.21,1093.20 4258.16,1085.98 4244.25,1083.76 4261.42,982.44 4287.57,987.07 4288.75,979.77 4309.16,979.86 4329.61,980.97 4350.31,982.94 4370.68,985.77 4391.23,989.68 4411.15,994.70 4430.43,1000.21 4449.74,1006.92 4448.68,1014.02 4474.79,1018.40"/>
    <poly id="11017395" type="building" color="255,230,230" fill="1" layer="-1.00" shape="4403.31,1327.78 4392.68,1390.62 4224.24,1362.29 4233.93,1304.98 4234.86,1299.45 4383.66,1324.47 4403.31,1327.78"/>
    <poly id="11017530" type="building" color="255,230,230" fill="1" layer="-1.00" shape="3926.80,1275.30 3944.77,1412.30 3885.27,1420.05 3890.19,1457.53 3764.77,1482.20 3749.55,1366.29 3739.17,1299.79 3926.80,1275.30"/>
    <poly id="11017562" type="building" color="255,230,230" fill="1" layer="-1.00" shape="3713.28,1488.97 3490.05,1518.82 3489.66,1515.86 3473.50,1395.34 3731.42,1360.90 3732.45,1368.57 3741.90,1367.30 3749.55,1366.29 3764.77,1482.20 3713.28,1488.97"/>
    <poly id="11017688" type="building" color="255,230,230" fill="1" layer="-1.00" shape="2881.02,1847.31 2896.54,1873.97 2808.18,1925.09 2807.37,1923.69 2790.88,1933.24 2777.06,1916.63 2785.21,1907.56 2796.14,1901.23 2794.04,1897.62 2881.02,1847.31"/>
    <poly id="11017688#1" type="tourism" color="207,245,201" fill="1" layer="-2.00" shape="2881.02,1847.31 2896.54,1873.97 2808.18,1925.09 2807.37,1923.69 2790.88,1933.24 2777.06,1916.63 2785.21,1907.56 2796.14,1901.23 2794.04,1897.62 2881.02,1847.31"/>
    <poly id="11017741" type="parking" color="184,184,179" fill="1" layer="-1.00" shape="2690.95,1023.42 2665.99,997.00 2646.74,976.83 2641.65,1032.57 2640.96,1040.88 2639.76,1051.81 2637.99,1067.96 2637.76,1070.06 2660.56,1071.35 2686.04,1072.82 2688.78,1045.23 2689.72,1035.75 2690.95,1023.42"/>
    <poly id="11017741#1" type="building" color="255,230,230" fill="1" layer="-1.00" shape="2690.95,1023.42 2665.99,997.00 2646.74,976.83 2641.65,1032.57 2640.96,1040.88 2639.76,1051.81 2637.99,1067.96 2637.76,1070.06 2660.56,1071.35 2686.04,1072.82 2688.78,1045.23 2689.72,1035.75 2690.95,1023.42"/>
    <poly id="11017775" type="parking" color="184,184,179" fill="1" layer="-1.00" shape="2621.80,950.83 2596.83,925.55 2562.86,898.61 2561.31,912.41 2560.29,920.63 2549.71,1022.98 2549.24,1031.33 2546.84,1051.07 2576.70,1062.28 2593.97,1066.47 2609.61,1067.37 2609.74,1066.16 2612.61,1037.92 2613.89,1028.24 2621.80,950.83"/>
    <poly id="11017775#1" type="building" color="255,230,230" fill="1" layer="-1.00" shape="2621.80,950.83 2596.83,925.55 2562.86,898.61 2561.31,912.41 2560.29,920.63 2549.71,1022.98 2549.24,1031.33 2546.84,1051.07 2576.70,1062.28 2593.97,1066.47 2609.61,1067.37 2609.74,1066.16 2612.61,1037.92 2613.89,1028.24 2621.80,950.83"/>
    <poly id="11017803" type="parking" color="184,184,179" fill="1" layer="-1.00" shape="2535.79,881.94 2505.40,868.55 2488.32,1029.60 2519.90,1040.58 2520.22,1035.32 2520.64,1028.36 2521.85,1019.95 2532.13,917.77 2532.90,909.86 2535.79,881.94"/>
    <poly id="11017803#1" type="building" color="255,230,230" fill="1" layer="-1.00" shape="2535.79,881.94 2505.40,868.55 2488.32,1029.60 2519.90,1040.58 2520.22,1035.32 2520.64,1028.36 2521.85,1019.95 2532.13,917.77 2532.90,909.86 2535.79,881.94"/>
    <poly id="11018162" type="building" color="255,230,230" fill="1" layer="-1.00" shape="5350.31,1094.79 5336.83,1129.70 5331.07,1144.63 5359.17,1155.38 5370.20,1126.77 5368.45,1126.06 5369.25,1124.46 5369.77,1123.00 5370.16,1121.65 5370.62,1119.49 5370.84,1117.54 5370.84,1115.82 5370.73,1113.96 5370.44,1112.60 5369.84,1109.98 5368.17,1105.88 5365.97,1102.52 5363.88,1100.09 5361.86,1098.51 5359.35,1096.90 5357.35,1096.16 5354.91,1095.34 5352.77,1094.92 5350.31,1094.79"/>
    <poly id="11018344" type="tourism" color="207,245,201" fill="1" layer="-2.00" shape="6127.75,1030.60 6085.40,1097.29 6071.30,1089.85 6046.60,1130.71 6014.86,1107.85 6005.12,1099.66 5999.21,1090.65 5994.79,1078.18 5995.69,1067.32 6035.05,991.80 6041.41,988.10 6058.01,990.17 6127.75,1030.60"/>
    <poly id="11018464" type="amenity" color="237,199,199" fill="1" layer="-1.00" shape="6022.01,1686.84 6022.81,1685.46 6024.26,1684.24 6025.77,1683.51 6024.50,1680.20 6036.32,1674.68 6049.01,1671.09 6050.24,1674.40 6052.44,1673.91 6054.61,1674.13 6056.19,1674.81 6057.65,1676.53 6058.56,1678.45 6059.01,1679.80 6061.77,1678.83 6066.51,1692.57 6062.74,1694.01 6073.35,1723.19 6076.75,1722.15 6082.12,1737.57 6078.89,1738.86 6081.34,1745.79 6068.24,1750.41 6069.22,1753.19 6058.39,1757.01 6057.41,1754.26 6045.34,1758.50 6042.89,1751.60 6040.32,1752.51 6034.70,1736.62 6038.72,1735.20 6028.46,1706.21 6025.06,1707.41 6019.89,1692.79 6022.59,1691.87 6022.09,1690.08 6021.76,1688.40 6022.01,1686.84"/>
    <poly id="11018464#1" type="building" color="255,230,230" fill="1" layer="-1.00" shape="6022.01,1686.84 6022.81,1685.46 6024.26,1684.24 6025.77,1683.51 6024.50,1680.20 6036.32,1674.68 6049.01,1671.09 6050.24,1674.40 6052.44,1673.91 6054.61,1674.13 6056.19,1674.81 6057.65,1676.53 6058.56,1678.45 6059.01,1679.80 6061.77,1678.83 6066.51,1692.57 6062.74,1694.01 6073.35,1723.19 6076.75,1722.15 6082.12,1737.57 6078.89,1738.86 6081.34,1745.79 6068.24,1750.41 6069.22,1753.19 6058.39,1757.01 6057.41,1754.26 6045.34,1758.50 6042.89,1751.60 6040.32,1752.51 6034.70,1736.62 6038.72,1735.20 6028.46,1706.21 6025.06,1707.41 6019.89,1692.79 6022.59,1691.87 6022.09,1690.08 6021.76,1688.40 6022.01,1686.84"/>
    <poly id="112181625" type="building" color="255,230,230" fill="1" layer="-1.00" shape="5276.11,1824.60 5286.60,1867.88 5268.62,1872.23 5258.12,1828.94 5276.11,1824.60"/>
    <poly id="112452716" type="parking" color="184,184,179" fill="1" layer="-1.00" shape="633.09,1444.70 635.95,1440.49 672.98,1465.56 670.11,1469.77 633.09,1444.70"/>
    <poly id="11526963" type="building" color="255,230,230" fill="1" layer="-1.00" shape="6072.88,1327.55 6076.55,1321.39 6081.84,1324.54 6082.71,1323.01 6083.20,1321.94 6083.89,1319.86 6084.31,1317.68 6084.39,1314.42 6083.81,1311.19 6083.26,1309.55 6082.34,1307.62 6080.79,1305.34 6079.16,1303.60 6076.00,1301.30 6074.02,1300.37 6071.75,1299.65 6069.58,1299.30 6067.00,1299.25 6064.15,1299.68 6061.79,1300.43 6058.91,1301.96 6056.80,1303.61 6055.66,1304.79 6053.39,1307.75 6052.42,1310.37 6051.77,1312.95 6051.55,1316.21 6051.95,1319.30 6052.49,1321.18 6053.26,1322.98 6054.00,1324.32 6054.97,1325.72 6057.19,1327.98 6051.60,1337.61 6049.36,1336.32 6044.17,1345.27 6066.97,1358.50 6081.84,1332.89 6072.88,1327.55"/>
    <poly id="11527077" type="building" color="255,230,230" fill="1" layer="-1.00" shape="6030.88,1442.83 6028.25,1442.29 6024.37,1442.75 6021.54,1443.66 5999.25,1452.73 5998.51,1454.45 6008.12,1479.15 6010.88,1485.05 6018.21,1486.52 6044.80,1475.55 6045.71,1473.27 6036.63,1450.19 6035.64,1447.67 6034.43,1445.78 6033.23,1444.11 6030.88,1442.83"/>
    <poly id="11527118" type="building" color="255,230,230" fill="1" layer="-1.00" shape="5689.48,1350.15 5695.00,1348.83 5702.79,1346.97 5704.14,1348.18 5700.22,1362.15 5698.20,1362.59 5662.85,1370.43 5661.17,1375.92 5658.40,1383.43 5656.28,1383.95 5646.86,1373.76 5647.23,1372.28 5656.00,1345.44 5654.41,1344.84 5657.55,1335.53 5648.41,1326.88 5648.84,1325.28 5663.38,1321.90 5664.76,1323.37 5689.48,1350.15"/>
    <poly id="11527233" type="building" color="255,230,230" fill="1" layer="-1.00" shape="5518.95,1204.26 5513.88,1201.17 5487.82,1243.85 5496.70,1249.27 5501.25,1241.85 5506.25,1244.90 5504.63,1247.57 5514.23,1253.43 5526.35,1233.10 5529.63,1227.72 5536.64,1216.20 5544.01,1203.65 5536.33,1198.97 5534.96,1201.22 5530.53,1198.51 5534.62,1191.82 5528.73,1188.23 5518.95,1204.26"/>
    <poly id="11527276" type="building" color="255,230,230" fill="1" layer="-1.00" shape="5174.77,1114.24 5185.97,1103.56 5182.50,1099.94 5189.48,1093.29 5203.80,1108.22 5214.95,1097.58 5206.91,1089.28 5203.80,1086.07 5194.90,1076.57 5184.88,1066.21 5174.06,1076.52 5176.59,1079.16 5169.27,1086.14 5156.25,1072.56 5145.04,1083.24 5174.77,1114.24"/>
    <poly id="11527403" type="building" color="255,230,230" fill="1" layer="-1.00" shape="5846.91,998.75 5847.24,997.71 5847.14,996.73 5846.43,995.66 5823.68,986.61 5822.52,986.71 5821.75,987.11 5821.23,987.64 5812.71,1009.66 5812.42,1011.11 5812.71,1012.08 5813.62,1012.73 5823.22,1016.51 5822.51,1018.65 5821.37,1018.32 5820.43,1018.25 5819.58,1018.58 5819.02,1019.33 5815.26,1029.44 5815.51,1030.65 5816.29,1031.48 5831.91,1038.01 5832.89,1037.97 5833.96,1037.59 5834.58,1036.59 5837.65,1028.24 5839.16,1028.85 5838.89,1029.64 5839.07,1030.67 5839.42,1031.51 5840.34,1031.99 5862.51,1040.77 5863.48,1040.94 5864.44,1040.70 5865.41,1039.77 5867.96,1033.13 5872.94,1020.20 5874.14,1017.08 5874.10,1016.06 5873.80,1015.23 5873.14,1014.49 5863.30,1010.78 5863.90,1008.86 5865.35,1009.35 5866.31,1009.19 5867.32,1008.48 5871.16,998.43 5871.16,997.57 5870.95,996.64 5870.18,995.92 5859.24,991.89 5854.18,989.99 5853.02,990.34 5852.22,990.79 5848.61,999.43 5846.91,998.75"/>
    <poly id="11527438" type="building" color="255,230,230" fill="1" layer="-1.00" shape="5969.86,955.76 5965.52,966.93 5963.01,972.55 5957.96,983.80 5956.70,986.64 5957.36,986.87 5953.05,997.12 5947.72,1009.75 5957.37,1013.74 5958.69,1010.52 5960.35,1011.35 5959.06,1014.19 5966.94,1017.41 5967.81,1015.28 5983.13,1023.42 5989.06,1012.26 5985.29,1010.17 5986.51,1007.22 5989.14,1008.25 5990.98,1003.25 5991.97,1000.57 5995.08,1001.66 6011.49,972.34 5989.46,963.56 5969.86,955.76"/>
    <poly id="11527497" type="building" color="255,230,230" fill="1" layer="-1.00" shape="6109.84,1188.06 6068.36,1164.27 6044.09,1206.33 6059.50,1215.24 6085.57,1230.12 6109.84,1188.06"/>
    <poly id="11527546" type="building" color="255,230,230" fill="1" layer="-1.00" shape="5945.80,1852.93 5947.53,1856.96 5969.71,1855.33 5967.41,1826.54 5957.85,1827.41 5956.50,1822.73 5936.76,1829.44 5945.80,1852.93"/>
    <poly id="11527735" type="building" color="255,230,230" fill="1" layer="-1.00" shape="5794.15,1366.94 5773.65,1355.88 5774.79,1353.76 5784.31,1336.13 5784.58,1335.62 5805.07,1346.70 5794.15,1366.94"/>