<?xml version="1.0" encoding="UTF-8"?>

<!-- generated on Mon Aug 17 16:59:39 2015 by SUMO duarouter Version 0.23.0
<?xml version="1.0" encoding="UTF-8"?>

<configuration xmlns:xsi="http://www.w3.org/2001/XMLSchema-instance" xsi:noNamespaceSchemaLocation="http://sumo.dlr.de/xsd/duarouterConfiguration.xsd">

    <input>
        <net-file value="2015-08-17-16-59.net.xml"/>
        <trip-files value="trips.trips.xml"/>
    </input>

    <output>
        <output-file value="2015-08-17-16-59.vehicles.rou.xml"/>
    </output>

    <processing>
        <ignore-errors value="true"/>
    </processing>

    <time>
        <begin value="0"/>
        <end value="360.0"/>
    </time>

    <report>
        <no-step-log value="true"/>
    </report>

</configuration>
-->

<routes xmlns:xsi="http://www.w3.org/2001/XMLSchema-instance" xsi:noNamespaceSchemaLocation="http://sumo.dlr.de/xsd/routes_file.xsd">
   <vType id="vtype0" color="1,0,0"/>
   <route id="route0" color="1,1,0" edges="5445106#0 132637908#6 132637908#7 27587117#0 27587117#1 283324392 301082103#0 301082103#2 322079024#0 322079024#2 322079022 322079023#0 -322079808#4 -86549622 5182588 322079812#0 30768661#0 319447618 319447625 26962900 319447624 37626229#0 5182612#0 319463010 319463012#0 319463012#1 48051920 147637808 319463011 319463011-AddedOffRampEdge 132795400 37251194-AddedOnRampEdge 37251194 254325725#0 254325725#3 132795401 132795399#0 135382405#0 135382405#2 151626968#0 151626968#1 194273819#0 194273819#1 3996883 3996883-AddedOffRampEdge 194273824 34249957 34249956 194273820 66325468 4000567 322123622 322123619 3996929 194273806"/>
   <route id="route1" color="1,1,0" edges="49605468 49605468-AddedOffRampEdge 49605467 4000564 4000564-AddedOffRampEdge 49605470 49605473 49605471 37249218 52032059 194273818 10791104 11527913 52036817 27419513 37251197#0 37251197#3 52036816#0 47467203#2 138949278 35742415#0 4514392#0 139015289 97375923#0 301082101 37251200#0 139017252#0 301592609 139110194#0 139110194#4 42368106#0 45578479 139187359#3 139187359#4 139187359#5 229811478 4850967 229808016#0 229808014 143559280 4850964 148754588#0 266449027 229808013 229808012#0 49967814#0 49967704#0 49967704#1 40739235 139015293 64942958#0 135811281#0 135811281#2 30284004#0 34249958#0 34249958#2 34186411 34186412 30284189 301727535#0 174959072#0 174959072#1 4223164 266632207#2 266632207#3 319463010 319463012#0 319463012#1 48051920 147637808 319463011 319463011-AddedOffRampEdge 27419497 4215071 194273819#0 194273819#1 3996883 3996883-AddedOffRampEdge 194273824 34249957 34249956 4000569"/> 
   <route id="route2" color="1,1,0" edges="49605468 49605468-AddedOffRampEdge 49605467 4000564 4000564-AddedOffRampEdge 49605470 49605473 49605471 37249218 52032059 194273818 10791104 11527913 52036817 27419513 37251197#0 37251197#3 52036816#0 47467203#2 138949278 35742415#0 4514392#0 139015289 97375923#0 301082101 37251200#0 139017252#0 301592609 139110194#0 139110194#4 42368106#0 45578479 139187359#3 139187359#4 139187359#5 229811478 4850967 229808016#0 229808014 143559280"/>
   <route id="route3" color="1,0,1" edges="4850964 148754588#0 266449027 229808013 229808012#0 49967814#0 49967704#0 49967704#1 40739235 139015293 64942958#0 135811281#0 135811281#2 30284004#0 34249958#0 34249958#2 34186411 34186412 30284189 301727535#0 174959072#0 174959072#1 4223164 266632207#2 266632207#3 319463010 319463012#0 319463012#1 48051920 147637808 319463011 319463011-AddedOffRampEdge 27419497 4215071 194273819#0 194273819#1 3996883 3996883-AddedOffRampEdge 194273824 34249957 34249956 4000569"/>
   <flow id="flow0" type="vtype0" route="route1" begin="0" period="5" number="1"/>
</routes>
